18626-1
                    3D
 Schrodinger Suite 2021-2.
 38 39  0  0  1  0            999 V2000
   24.4194   10.9879   30.4099 C   0  0  0  0  0  0
   22.9846   11.3803   30.0888 C   0  0  0  0  0  0
   22.2078   11.4387   31.2703 O   0  0  0  0  0  0
   21.4853   10.3355   31.6702 C   0  0  0  0  0  0
   21.8279    9.1255   31.1888 N   0  0  0  0  0  0
   21.0577    8.0567   31.4526 C   0  0  0  0  0  0
   19.9002    8.1658   32.2386 C   0  0  0  0  0  0
   19.5675    9.4096   32.7690 C   0  0  0  0  0  0
   18.4113    9.5045   33.5130 N   0  0  0  0  0  0
   20.3633   10.5222   32.4805 C   0  0  0  0  0  0
   20.0119   11.8462   32.9244 C   0  0  0  0  0  0
   19.7294   12.9019   33.2696 N   0  0  0  0  0  0
   21.4701    6.8432   30.8839 N   0  0  0  0  0  0
   20.9990    5.5996   31.0108 C   0  0  0  0  0  0
   20.0266    5.2605   31.6697 O   0  0  0  0  0  0
   21.7438    4.5619   30.1988 C   0  0  0  0  0  0
   23.0920    4.2675   30.8082 C   0  0  0  0  0  0
   23.2462    3.1312   31.6200 C   0  0  0  0  0  0
   24.4885    2.8291   32.1923 C   0  0  0  0  0  0
   24.6333    1.5013   33.2664 Cl  0  0  0  0  0  0
   25.6038    3.6295   31.9101 C   0  0  0  0  0  0
   25.4567    4.7596   31.0849 C   0  0  0  0  0  0
   24.2021    5.0916   30.5418 C   0  0  0  0  0  0
   25.0369   10.9986   29.5119 H   0  0  0  0  0  0
   24.4755    9.9878   30.8399 H   0  0  0  0  0  0
   24.8563   11.6831   31.1266 H   0  0  0  0  0  0
   22.9809   12.3775   29.6483 H   0  0  0  0  0  0
   22.5495   10.7240   29.3331 H   0  0  0  0  0  0
   19.2590    7.3266   32.4535 H   0  0  0  0  0  0
   17.9896   10.4124   33.6641 H   0  0  0  0  0  0
   17.7522    8.7404   33.5045 H   0  0  0  0  0  0
   22.2811    6.9292   30.2965 H   0  0  0  0  0  0
   21.1565    3.6448   30.1330 H   0  0  0  0  0  0
   21.8704    4.9213   29.1780 H   0  0  0  0  0  0
   22.4114    2.4704   31.7949 H   0  0  0  0  0  0
   26.5656    3.3931   32.3413 H   0  0  0  0  0  0
   26.3137    5.3818   30.8702 H   0  0  0  0  0  0
   24.1085    5.9596   29.9060 H   0  0  0  0  0  0
  1  2  1  0  0  0
  1 24  1  0  0  0
  1 25  1  0  0  0
  1 26  1  0  0  0
  2  3  1  0  0  0
  2 27  1  0  0  0
  2 28  1  0  0  0
  3  4  1  0  0  0
  4 10  1  0  0  0
  4  5  2  0  0  0
  5  6  1  0  0  0
  6  7  2  0  0  0
  6 13  1  0  0  0
  7  8  1  0  0  0
  7 29  1  0  0  0
  8  9  1  0  0  0
  8 10  2  0  0  0
  9 30  1  0  0  0
  9 31  1  0  0  0
 10 11  1  0  0  0
 11 12  3  0  0  0
 13 14  1  0  0  0
 13 32  1  0  0  0
 14 15  2  0  0  0
 14 16  1  0  0  0
 16 17  1  0  0  0
 16 33  1  0  0  0
 16 34  1  0  0  0
 17 23  1  0  0  0
 17 18  2  0  0  0
 18 19  1  0  0  0
 18 35  1  0  0  0
 19 20  1  0  0  0
 19 21  2  0  0  0
 21 22  1  0  0  0
 21 36  1  0  0  0
 22 23  2  0  0  0
 22 37  1  0  0  0
 23 38  1  0  0  0
M  END
> <i_m_stars>
0

> <s_m_entry_id>
3018

> <s_m_entry_name>
Jnk1_18626-1.1

> <s_m_Source_Path>
C:\Users\yujiethinkpad\Desktop\05A\JNK1

> <s_m_Source_File>
Jnk1_18626-1.sdf

> <i_m_Source_File_Index>
1

> <s_i_glide_gridfile>
glide-grid_JNK1

> <r_i_docking_score>
-7.52190948082615

> <r_i_glide_ecoul>
-6.2207989692688

> <r_i_glide_einternal>
7.73507022857666

> <r_i_glide_emodel>
-43.7107140274982

> <r_i_glide_energy>
-39.1478581428528

> <r_i_glide_erotb>
0.687793016403273

> <r_i_glide_esite>
0

> <r_i_glide_evdw>
-32.927059173584

> <r_i_glide_gscore>
-7.52190948082615

> <r_i_glide_hbond>
-0.324713250650985

> <r_i_glide_ligand_efficiency>
-0.327039542644615

> <r_i_glide_ligand_efficiency_ln>
-1.81886591736803

> <r_i_glide_ligand_efficiency_sa>
-0.930056955460717

> <r_i_glide_lipo>
-3.26782254144492

> <r_i_glide_metal>
0

> <r_i_glide_rewards>
-2.037693901064

> <i_i_glide_confnum>
10

> <i_i_glide_lignum>
17

> <i_i_glide_posenum>
23

> <i_i_glide_rotatable_bonds>
6

> <r_i_glide_eff_state_penalty>
0

> <s_m_job_name>
glide-dock_SP_other_0000

> <r_user_dG.exp>
-8.872536

> <r_m_Molecular_weight>
330.77655

> <r_glide_shape_similarity>
0.86859530210495

> <s_m_subgroup_title>
glide-dock_SP_other_0000_lib1

> <s_m_subgroupid>
glide-dock_SP_other_0000_lib1

> <b_m_subgroup_collapsed>
0

$$$$
