18632-1
                    3D
 Schrodinger Suite 2021-2.
 42 43  0  0  1  0            999 V2000
   24.4259   10.9755   30.4241 C   0  0  0  0  0  0
   22.9949   11.3741   30.0943 C   0  0  0  0  0  0
   22.2108   11.4375   31.2706 O   0  0  0  0  0  0
   21.4891   10.3344   31.6733 C   0  0  0  0  0  0
   21.8316    9.1239   31.1924 N   0  0  0  0  0  0
   21.0613    8.0553   31.4550 C   0  0  0  0  0  0
   19.9022    8.1666   32.2389 C   0  0  0  0  0  0
   19.5683    9.4111   32.7669 C   0  0  0  0  0  0
   18.4121    9.5077   33.5103 N   0  0  0  0  0  0
   20.3647   10.5232   32.4794 C   0  0  0  0  0  0
   20.0122   11.8470   32.9227 C   0  0  0  0  0  0
   19.7287   12.9025   33.2681 N   0  0  0  0  0  0
   21.4758    6.8402   30.8887 N   0  0  0  0  0  0
   20.9977    5.5986   31.0150 C   0  0  0  0  0  0
   20.0217    5.2670   31.6706 O   0  0  0  0  0  0
   21.7332    4.5486   30.2131 C   0  0  0  0  0  0
   23.0753    4.2442   30.8298 C   0  0  0  0  0  0
   24.1834    5.0563   30.5549 C   0  0  0  0  0  0
   25.4481    4.7091   31.0781 C   0  0  0  0  0  0
   26.5973    5.3917   30.7883 O   0  0  0  0  0  0
   26.5090    6.4304   29.8268 C   0  0  0  0  0  0
   25.5838    3.5869   31.9132 C   0  0  0  0  0  0
   24.4761    2.7747   32.1901 C   0  0  0  0  0  0
   23.2335    3.1023   31.6322 C   0  0  0  0  0  0
   25.0480   10.9822   29.5295 H   0  0  0  0  0  0
   24.4749    9.9757   30.8556 H   0  0  0  0  0  0
   24.8623   11.6688   31.1416 H   0  0  0  0  0  0
   22.9981   12.3705   29.6525 H   0  0  0  0  0  0
   22.5610   10.7197   29.3364 H   0  0  0  0  0  0
   19.2595    7.3288   32.4539 H   0  0  0  0  0  0
   17.9835   10.4118   33.6658 H   0  0  0  0  0  0
   17.7628    8.7348   33.5133 H   0  0  0  0  0  0
   22.2914    6.9226   30.3070 H   0  0  0  0  0  0
   21.1357    3.6371   30.1577 H   0  0  0  0  0  0
   21.8635    4.8941   29.1874 H   0  0  0  0  0  0
   24.0492    5.9100   29.9093 H   0  0  0  0  0  0
   27.5098    6.8235   29.6496 H   0  0  0  0  0  0
   26.1308    6.0679   28.8698 H   0  0  0  0  0  0
   25.8859    7.2543   30.1780 H   0  0  0  0  0  0
   26.5535    3.3281   32.3134 H   0  0  0  0  0  0
   24.5835    1.8894   32.7995 H   0  0  0  0  0  0
   22.4103    2.4262   31.7900 H   0  0  0  0  0  0
  1  2  1  0  0  0
  1 25  1  0  0  0
  1 26  1  0  0  0
  1 27  1  0  0  0
  2  3  1  0  0  0
  2 28  1  0  0  0
  2 29  1  0  0  0
  3  4  1  0  0  0
  4 10  1  0  0  0
  4  5  2  0  0  0
  5  6  1  0  0  0
  6  7  2  0  0  0
  6 13  1  0  0  0
  7  8  1  0  0  0
  7 30  1  0  0  0
  8  9  1  0  0  0
  8 10  2  0  0  0
  9 31  1  0  0  0
  9 32  1  0  0  0
 10 11  1  0  0  0
 11 12  3  0  0  0
 13 14  1  0  0  0
 13 33  1  0  0  0
 14 15  2  0  0  0
 14 16  1  0  0  0
 16 17  1  0  0  0
 16 34  1  0  0  0
 16 35  1  0  0  0
 17 24  1  0  0  0
 17 18  2  0  0  0
 18 19  1  0  0  0
 18 36  1  0  0  0
 19 20  1  0  0  0
 19 22  2  0  0  0
 20 21  1  0  0  0
 21 37  1  0  0  0
 21 38  1  0  0  0
 21 39  1  0  0  0
 22 23  1  0  0  0
 22 40  1  0  0  0
 23 24  2  0  0  0
 23 41  1  0  0  0
 24 42  1  0  0  0
M  END
> <i_m_stars>
0

> <s_m_entry_id>
3026

> <s_m_entry_name>
Jnk1_18632-1.1

> <s_m_Source_Path>
C:\Users\yujiethinkpad\Desktop\05A\JNK1

> <s_m_Source_File>
Jnk1_18632-1.sdf

> <i_m_Source_File_Index>
1

> <s_i_glide_gridfile>
glide-grid_JNK1

> <r_i_docking_score>
-7.37387210526339

> <r_i_glide_ecoul>
-6.62983894348145

> <r_i_glide_einternal>
7.42625951766968

> <r_i_glide_emodel>
-42.0442411307644

> <r_i_glide_energy>
-39.41188621521

> <r_i_glide_erotb>
0.88041336613276

> <r_i_glide_esite>
0

> <r_i_glide_evdw>
-32.7820472717285

> <r_i_glide_gscore>
-7.37387210526339

> <r_i_glide_hbond>
-0.328773168596839

> <r_i_glide_ligand_efficiency>
-0.307244671052641

> <r_i_glide_ligand_efficiency_ln>
-1.76490595973228

> <r_i_glide_ligand_efficiency_sa>
-0.886246988670979

> <r_i_glide_lipo>
-3.22351267905734

> <r_i_glide_metal>
0

> <r_i_glide_rewards>
-2.06842141863333

> <i_i_glide_confnum>
5

> <i_i_glide_lignum>
3

> <i_i_glide_posenum>
323

> <i_i_glide_rotatable_bonds>
7

> <r_i_glide_eff_state_penalty>
0

> <s_m_job_name>
glide-dock_SP_other_0000

> <r_user_dG.exp>
-9.083236

> <r_m_Molecular_weight>
326.35801

> <r_glide_shape_similarity>
0.853689551353455

> <s_m_subgroup_title>
glide-dock_SP_other_0000_lib1

> <s_m_subgroupid>
glide-dock_SP_other_0000_lib1

> <b_m_subgroup_collapsed>
0

$$$$
