18631-1
                    3D
 Schrodinger Suite 2021-2.
 42 43  0  0  1  0            999 V2000
   23.5373   11.0795   29.2240 C   0  0  0  0  0  0
   23.5823   11.2003   30.7439 C   0  0  0  0  0  0
   22.2804   11.3923   31.2700 O   0  0  0  0  0  0
   21.5310   10.3049   31.6696 C   0  0  0  0  0  0
   21.8816    9.0881   31.2101 N   0  0  0  0  0  0
   21.1049    8.0225   31.4636 C   0  0  0  0  0  0
   19.9382    8.1376   32.2330 C   0  0  0  0  0  0
   19.5908    9.3900   32.7361 C   0  0  0  0  0  0
   18.4238    9.4920   33.4626 N   0  0  0  0  0  0
   20.3862   10.5032   32.4489 C   0  0  0  0  0  0
   20.0304   11.8257   32.8982 C   0  0  0  0  0  0
   19.7451   12.8764   33.2533 N   0  0  0  0  0  0
   21.5411    6.7926   30.9442 N   0  0  0  0  0  0
   20.9575    5.5944   30.8982 C   0  0  0  0  0  0
   19.8256    5.3408   31.2819 O   0  0  0  0  0  0
   21.7444    4.5053   30.1974 C   0  0  0  0  0  0
   23.0903    4.2433   30.8347 C   0  0  0  0  0  0
   24.1865    5.0830   30.5590 C   0  0  0  0  0  0
   23.9643    6.1758   29.7539 O   0  0  0  0  0  0
   24.8614    7.2608   29.8512 C   0  0  0  0  0  0
   25.4489    4.7476   31.0980 C   0  0  0  0  0  0
   25.6055    3.6085   31.9091 C   0  0  0  0  0  0
   24.5027    2.7904   32.1954 C   0  0  0  0  0  0
   23.2493    3.1121   31.6581 C   0  0  0  0  0  0
   24.5407   10.9865   28.8080 H   0  0  0  0  0  0
   23.0613   11.9516   28.7793 H   0  0  0  0  0  0
   22.9806   10.1980   28.9077 H   0  0  0  0  0  0
   24.1047   10.3578   31.2001 H   0  0  0  0  0  0
   24.1640   12.0839   31.0046 H   0  0  0  0  0  0
   19.3096    7.2958   32.4659 H   0  0  0  0  0  0
   18.0082   10.3981   33.6398 H   0  0  0  0  0  0
   17.7787    8.7140   33.4845 H   0  0  0  0  0  0
   22.4511    6.8187   30.5022 H   0  0  0  0  0  0
   21.1633    3.5830   30.1795 H   0  0  0  0  0  0
   21.8798    4.7984   29.1588 H   0  0  0  0  0  0
   24.4765    8.0950   29.2659 H   0  0  0  0  0  0
   24.9627    7.6074   30.8755 H   0  0  0  0  0  0
   25.8440    7.0133   29.4523 H   0  0  0  0  0  0
   26.3204    5.3467   30.8867 H   0  0  0  0  0  0
   26.5772    3.3682   32.3147 H   0  0  0  0  0  0
   24.6228    1.9096   32.8070 H   0  0  0  0  0  0
   22.4147    2.4477   31.8479 H   0  0  0  0  0  0
  1  2  1  0  0  0
  1 25  1  0  0  0
  1 26  1  0  0  0
  1 27  1  0  0  0
  2  3  1  0  0  0
  2 28  1  0  0  0
  2 29  1  0  0  0
  3  4  1  0  0  0
  4 10  1  0  0  0
  4  5  2  0  0  0
  5  6  1  0  0  0
  6  7  2  0  0  0
  6 13  1  0  0  0
  7  8  1  0  0  0
  7 30  1  0  0  0
  8  9  1  0  0  0
  8 10  2  0  0  0
  9 31  1  0  0  0
  9 32  1  0  0  0
 10 11  1  0  0  0
 11 12  3  0  0  0
 13 14  1  0  0  0
 13 33  1  0  0  0
 14 15  2  0  0  0
 14 16  1  0  0  0
 16 17  1  0  0  0
 16 34  1  0  0  0
 16 35  1  0  0  0
 17 24  1  0  0  0
 17 18  2  0  0  0
 18 19  1  0  0  0
 18 21  1  0  0  0
 19 20  1  0  0  0
 20 36  1  0  0  0
 20 37  1  0  0  0
 20 38  1  0  0  0
 21 22  2  0  0  0
 21 39  1  0  0  0
 22 23  1  0  0  0
 22 40  1  0  0  0
 23 24  2  0  0  0
 23 41  1  0  0  0
 24 42  1  0  0  0
M  END
> <i_m_stars>
0

> <s_m_entry_id>
3021

> <s_m_entry_name>
Jnk1_18631-1.1

> <s_m_Source_Path>
C:\Users\yujiethinkpad\Desktop\05A\JNK1

> <s_m_Source_File>
Jnk1_18631-1.sdf

> <i_m_Source_File_Index>
1

> <s_i_glide_gridfile>
glide-grid_JNK1

> <r_i_docking_score>
-7.43722040600996

> <r_i_glide_ecoul>
-6.84300470352173

> <r_i_glide_einternal>
7.76953458786011

> <r_i_glide_emodel>
-46.8398916537423

> <r_i_glide_energy>
-41.721987247467

> <r_i_glide_erotb>
0.88041336613276

> <r_i_glide_esite>
0

> <r_i_glide_evdw>
-34.8789825439453

> <r_i_glide_gscore>
-7.43722040600996

> <r_i_glide_hbond>
-0.326388233172617

> <r_i_glide_ligand_efficiency>
-0.309884183583748

> <r_i_glide_ligand_efficiency_ln>
-1.78006811496505

> <r_i_glide_ligand_efficiency_sa>
-0.893860660290534

> <r_i_glide_lipo>
-3.17074982268812

> <r_i_glide_metal>
0

> <r_i_glide_rewards>
-2.05009588355646

> <i_i_glide_confnum>
5

> <i_i_glide_lignum>
2

> <i_i_glide_posenum>
305

> <i_i_glide_rotatable_bonds>
7

> <r_i_glide_eff_state_penalty>
0

> <s_m_job_name>
glide-dock_SP_other_0000

> <r_user_dG.exp>
-9.413821

> <r_m_Molecular_weight>
326.35801

> <r_glide_shape_similarity>
0.87681770324707

> <s_m_subgroup_title>
glide-dock_SP_other_0000_lib1

> <s_m_subgroupid>
glide-dock_SP_other_0000_lib1

> <b_m_subgroup_collapsed>
0

$$$$
