18636-1
                    3D
 Schrodinger Suite 2021-2.
 38 39  0  0  1  0            999 V2000
   24.4065   10.7772   30.4655 C   0  0  0  0  0  0
   23.0462   11.3588   30.1204 C   0  0  0  0  0  0
   22.2272   11.4414   31.2707 O   0  0  0  0  0  0
   21.4897   10.3511   31.6726 C   0  0  0  0  0  0
   21.8157    9.1349   31.2033 N   0  0  0  0  0  0
   21.0338    8.0739   31.4728 C   0  0  0  0  0  0
   19.8816    8.1951   32.2656 C   0  0  0  0  0  0
   19.5628    9.4528   32.7793 C   0  0  0  0  0  0
   18.4112    9.5864   33.5159 N   0  0  0  0  0  0
   20.3680   10.5529   32.4804 C   0  0  0  0  0  0
   20.0173   11.8826   32.9129 C   0  0  0  0  0  0
   19.7319   12.9404   33.2440 N   0  0  0  0  0  0
   21.4372    6.8620   30.8987 N   0  0  0  0  0  0
   20.9817    5.6127   31.0239 C   0  0  0  0  0  0
   20.0068    5.2714   31.6672 O   0  0  0  0  0  0
   21.7427    4.5806   30.2185 C   0  0  0  0  0  0
   23.0999    4.2784   30.8205 C   0  0  0  0  0  0
   24.2322    5.0779   30.5637 C   0  0  0  0  0  0
   24.1663    6.6225   29.4690 Br  0  0  0  0  0  0
   25.4788    4.7245   31.1019 C   0  0  0  0  0  0
   25.6167    3.5990   31.9240 C   0  0  0  0  0  0
   24.4890    2.8172   32.1975 C   0  0  0  0  0  0
   24.6250    1.3518   33.3825 Br  0  0  0  0  0  0
   23.2508    3.1344   31.6251 C   0  0  0  0  0  0
   25.0884   10.8513   29.6205 H   0  0  0  0  0  0
   24.3244    9.7286   30.7517 H   0  0  0  0  0  0
   24.8519   11.3182   31.2962 H   0  0  0  0  0  0
   23.1779   12.3742   29.7477 H   0  0  0  0  0  0
   22.5709   10.7975   29.3144 H   0  0  0  0  0  0
   19.2300    7.3628   32.4806 H   0  0  0  0  0  0
   17.9983   10.4983   33.6714 H   0  0  0  0  0  0
   17.7512    8.8194   33.5446 H   0  0  0  0  0  0
   22.2396    6.9428   30.2945 H   0  0  0  0  0  0
   21.1642    3.6588   30.1609 H   0  0  0  0  0  0
   21.8428    4.9377   29.1959 H   0  0  0  0  0  0
   26.3455    5.3274   30.8848 H   0  0  0  0  0  0
   26.5776    3.3463   32.3535 H   0  0  0  0  0  0
   22.4149    2.4766   31.7908 H   0  0  0  0  0  0
  1  2  1  0  0  0
  1 25  1  0  0  0
  1 26  1  0  0  0
  1 27  1  0  0  0
  2  3  1  0  0  0
  2 28  1  0  0  0
  2 29  1  0  0  0
  3  4  1  0  0  0
  4 10  1  0  0  0
  4  5  2  0  0  0
  5  6  1  0  0  0
  6  7  2  0  0  0
  6 13  1  0  0  0
  7  8  1  0  0  0
  7 30  1  0  0  0
  8  9  1  0  0  0
  8 10  2  0  0  0
  9 31  1  0  0  0
  9 32  1  0  0  0
 10 11  1  0  0  0
 11 12  3  0  0  0
 13 14  1  0  0  0
 13 33  1  0  0  0
 14 15  2  0  0  0
 14 16  1  0  0  0
 16 17  1  0  0  0
 16 34  1  0  0  0
 16 35  1  0  0  0
 17 24  1  0  0  0
 17 18  2  0  0  0
 18 19  1  0  0  0
 18 20  1  0  0  0
 20 21  2  0  0  0
 20 36  1  0  0  0
 21 22  1  0  0  0
 21 37  1  0  0  0
 22 23  1  0  0  0
 22 24  2  0  0  0
 24 38  1  0  0  0
M  END
> <i_m_stars>
0

> <s_m_entry_id>
3023

> <s_m_entry_name>
Jnk1_18636-1.1

> <s_m_Source_Path>
C:\Users\yujiethinkpad\Desktop\05A\JNK1

> <s_m_Source_File>
Jnk1_18636-1.sdf

> <i_m_Source_File_Index>
1

> <s_i_glide_gridfile>
glide-grid_JNK1

> <r_i_docking_score>
-7.40470786166988

> <r_i_glide_ecoul>
-6.58027267456055

> <r_i_glide_einternal>
8.63812351226807

> <r_i_glide_emodel>
-49.6746496880335

> <r_i_glide_energy>
-42.5123405456543

> <r_i_glide_erotb>
0.389456225959289

> <r_i_glide_esite>
0

> <r_i_glide_evdw>
-35.9320678710938

> <r_i_glide_gscore>
-7.40470786166988

> <r_i_glide_hbond>
-0.32

> <r_i_glide_ligand_efficiency>
-0.308529494236245

> <r_i_glide_ligand_efficiency_ln>
-1.77228637120102

> <r_i_glide_ligand_efficiency_sa>
-0.889953060036

> <r_i_glide_lipo>
-3.50323005475048

> <r_i_glide_metal>
0

> <r_i_glide_rewards>
-1.18728973813992

> <i_i_glide_confnum>
9

> <i_i_glide_lignum>
7

> <i_i_glide_posenum>
239

> <i_i_glide_rotatable_bonds>
6

> <r_i_glide_eff_state_penalty>
0

> <s_m_job_name>
glide-dock_SP_other_0000

> <r_user_dG.exp>
-7.512318

> <r_m_Molecular_weight>
454.13358

> <r_glide_shape_similarity>
0.900865137577057

> <s_m_subgroup_title>
glide-dock_SP_other_0000_lib1

> <s_m_subgroupid>
glide-dock_SP_other_0000_lib1

> <b_m_subgroup_collapsed>
0

$$$$
