18639-1
                    3D
 Schrodinger Suite 2021-2.
 48 49  0  0  1  0            999 V2000
   24.4627   11.5173   30.2466 C   0  0  0  0  0  0
   22.9610   11.3302   30.0248 C   0  0  0  0  0  0
   22.2453   11.4142   31.2692 O   0  0  0  0  0  0
   21.4798   10.3310   31.6853 C   0  0  0  0  0  0
   21.8143    9.1000   31.2273 N   0  0  0  0  0  0
   21.0287    8.0314   31.4841 C   0  0  0  0  0  0
   19.8778    8.1452   32.2981 C   0  0  0  0  0  0
   19.5495    9.4065   32.8303 C   0  0  0  0  0  0
   18.4112    9.4968   33.6201 N   0  0  0  0  0  0
   20.3408   10.5372   32.5007 C   0  0  0  0  0  0
   19.9821   11.8825   32.9296 C   0  0  0  0  0  0
   19.6986   12.9473   33.2660 N   0  0  0  0  0  0
   21.4194    6.8206   30.8696 N   0  0  0  0  0  0
   20.9623    5.5608   30.9851 C   0  0  0  0  0  0
   20.0116    5.1990   31.6702 O   0  0  0  0  0  0
   21.7201    4.5324   30.1452 C   0  0  0  0  0  0
   23.0849    4.2523   30.7675 C   0  0  0  0  0  0
   24.1905    5.1092   30.5342 C   0  0  0  0  0  0
   23.9908    6.2272   29.7381 O   0  0  0  0  0  0
   24.7694    7.3857   30.0280 C   0  0  0  0  0  0
   25.4479    4.7518   31.0941 C   0  0  0  0  0  0
   25.6112    3.5881   31.9090 C   0  0  0  0  0  0
   26.9798    3.2429   32.4019 N   0  3  0  0  0  0
   27.9028    3.9862   32.0724 O   0  5  0  0  0  0
   27.1525    2.2528   33.1134 O   0  0  0  0  0  0
   24.4679    2.7663   32.1885 C   0  0  0  0  0  0
   23.2315    3.1069   31.5780 C   0  0  0  0  0  0
   24.5787    1.6644   33.0267 O   0  0  0  0  0  0
   23.5262    0.6951   33.0538 C   0  0  0  0  0  0
   25.0277   11.2289   29.3627 H   0  0  0  0  0  0
   24.8193   10.9254   31.0871 H   0  0  0  0  0  0
   24.6859   12.5632   30.4399 H   0  0  0  0  0  0
   22.5907   12.1216   29.3758 H   0  0  0  0  0  0
   22.7936   10.4131   29.4625 H   0  0  0  0  0  0
   19.2463    7.2998   32.5218 H   0  0  0  0  0  0
   17.9629   10.3990   33.7654 H   0  0  0  0  0  0
   17.7789    8.7030   33.6819 H   0  0  0  0  0  0
   22.2187    6.9215   30.2560 H   0  0  0  0  0  0
   21.1522    3.6035   30.0432 H   0  0  0  0  0  0
   21.8407    4.9146   29.1307 H   0  0  0  0  0  0
   24.3756    8.2323   29.4667 H   0  0  0  0  0  0
   24.7249    7.6425   31.0871 H   0  0  0  0  0  0
   25.8124    7.2538   29.7356 H   0  0  0  0  0  0
   26.3064    5.3694   30.8782 H   0  0  0  0  0  0
   22.3655    2.4739   31.6706 H   0  0  0  0  0  0
   23.7492   -0.0450   33.8218 H   0  0  0  0  0  0
   22.5316    1.0990   33.2708 H   0  0  0  0  0  0
   23.4812    0.1717   32.0988 H   0  0  0  0  0  0
  1  2  1  0  0  0
  1 30  1  0  0  0
  1 31  1  0  0  0
  1 32  1  0  0  0
  2  3  1  0  0  0
  2 33  1  0  0  0
  2 34  1  0  0  0
  3  4  1  0  0  0
  4 10  1  0  0  0
  4  5  2  0  0  0
  5  6  1  0  0  0
  6  7  2  0  0  0
  6 13  1  0  0  0
  7  8  1  0  0  0
  7 35  1  0  0  0
  8  9  1  0  0  0
  8 10  2  0  0  0
  9 36  1  0  0  0
  9 37  1  0  0  0
 10 11  1  0  0  0
 11 12  3  0  0  0
 13 14  1  0  0  0
 13 38  1  0  0  0
 14 15  2  0  0  0
 14 16  1  0  0  0
 16 17  1  0  0  0
 16 39  1  0  0  0
 16 40  1  0  0  0
 17 27  1  0  0  0
 17 18  2  0  0  0
 18 19  1  0  0  0
 18 21  1  0  0  0
 19 20  1  0  0  0
 20 41  1  0  0  0
 20 42  1  0  0  0
 20 43  1  0  0  0
 21 22  2  0  0  0
 21 44  1  0  0  0
 22 23  1  0  0  0
 22 26  1  0  0  0
 23 24  1  0  0  0
 23 25  2  0  0  0
 26 27  2  0  0  0
 26 28  1  0  0  0
 27 45  1  0  0  0
 28 29  1  0  0  0
 29 46  1  0  0  0
 29 47  1  0  0  0
 29 48  1  0  0  0
M  CHG  2  23   1  24  -1
M  END
> <i_m_stars>
0

> <s_m_entry_id>
3011

> <s_m_entry_name>
Jnk1_18639-1.1

> <s_m_Source_Path>
C:\Users\yujiethinkpad\Desktop\05A\JNK1

> <s_m_Source_File>
Jnk1_18639-1.sdf

> <i_m_Source_File_Index>
1

> <s_i_glide_gridfile>
glide-grid_JNK1

> <r_i_docking_score>
-7.84236091666717

> <r_i_glide_ecoul>
-7.77373313903809

> <r_i_glide_einternal>
7.50931787490845

> <r_i_glide_emodel>
-55.851216651142

> <r_i_glide_energy>
-44.733491897583

> <r_i_glide_erotb>
0.608732221122544

> <r_i_glide_esite>
0

> <r_i_glide_evdw>
-36.9597587585449

> <r_i_glide_gscore>
-7.84236091666717

> <r_i_glide_hbond>
-0.409123244425415

> <r_i_glide_ligand_efficiency>
-0.270426238505764

> <r_i_glide_ligand_efficiency_ln>
-1.79570178480249

> <r_i_glide_ligand_efficiency_sa>
-0.830835081735638

> <r_i_glide_lipo>
-3.39453904247673

> <r_i_glide_metal>
0

> <r_i_glide_rewards>
-1.6333829421046

> <i_i_glide_confnum>
11

> <i_i_glide_lignum>
10

> <i_i_glide_posenum>
328

> <i_i_glide_rotatable_bonds>
9

> <r_i_glide_eff_state_penalty>
0

> <s_m_job_name>
glide-dock_SP_other_0000

> <r_user_dG.exp>
-9.740725

> <r_m_Molecular_weight>
401.38203

> <r_glide_shape_similarity>
0.909742474555969

> <s_m_subgroup_title>
glide-dock_SP_other_0000_lib1

> <s_m_subgroupid>
glide-dock_SP_other_0000_lib1

> <b_m_subgroup_collapsed>
0

$$$$
