20667(2qbp)
                    3D
 Schrodinger Suite 2021-2.
 60 63  0  0  1  0            999 V2000
   40.7908   17.7648   11.6356 O   0  0  0  0  0  0
   40.5625   17.4304   12.8151 C   0  0  0  0  0  0
   39.5929   17.8219   13.5058 O   0  5  0  0  0  0
   41.6218   16.4964   13.3763 C   0  0  0  0  0  0
   41.2854   16.1009   14.6724 O   0  0  0  0  0  0
   42.0239   15.0810   15.1399 C   0  0  0  0  0  0
   41.7016   13.7217   14.9580 C   0  0  0  0  0  0
   40.4548   13.2417   13.6268 Br  0  0  0  0  0  0
   42.3207   12.8572   15.8236 C   0  0  0  0  0  0
   42.0813   11.4383   16.0951 C   0  0  0  0  0  0
   43.1208   10.5913   16.5330 C   0  0  0  0  0  0
   42.8741    9.2290   16.7850 C   0  0  0  0  0  0
   41.5998    8.6823   16.5435 C   0  0  0  0  0  0
   40.5486    9.5007   16.0642 C   0  0  0  0  0  0
   39.2812    9.0104   15.6810 N   0  0  0  0  0  0
   38.9544    7.5842   15.6826 C   0  0  0  0  0  0
   37.4305    7.2916   15.6430 C   0  0  0  0  0  0
   36.8484    6.9377   14.2589 C   0  0  0  0  0  0
   37.6865    5.8752   13.5318 N   0  0  1  0  0  0
   36.9733    5.5168   11.9856 S   0  0  0  0  0  0
   37.7174    4.3949   11.4027 O   0  0  0  0  0  0
   36.8066    6.7857   11.2686 O   0  0  0  0  0  0
   35.3510    4.9228   12.4142 C   0  0  0  0  0  0
   35.4773    3.7072   13.2840 C   0  0  0  0  0  0
   36.5754    3.5647   14.1238 C   0  0  0  0  0  0
   36.6924    2.4384   14.9297 C   0  0  0  0  0  0
   35.7112    1.4547   14.8958 C   0  0  0  0  0  0
   34.6130    1.5973   14.0560 C   0  0  0  0  0  0
   34.4961    2.7235   13.2501 C   0  0  0  0  0  0
   39.1013    6.4230   13.3326 C   0  0  0  0  0  0
   39.7722    6.7181   14.6830 C   0  0  0  0  0  0
   40.7967   10.8790   15.9080 C   0  0  0  0  0  0
   43.5649   13.7214   16.6887 S   0  0  0  0  0  0
   43.1192   15.2335   15.9330 C   0  0  0  0  0  0
   43.8952   16.4233   16.2767 C   0  0  0  0  0  0
   43.8127   17.4358   15.5434 O   0  0  0  0  0  0
   44.6139   16.4099   17.2965 O   0  5  0  0  0  0
   42.5830   17.0098   13.4003 H   0  0  0  0  0  0
   41.6981   15.6118   12.7440 H   0  0  0  0  0  0
   44.1153   10.9856   16.6838 H   0  0  0  0  0  0
   43.6638    8.5987   17.1662 H   0  0  0  0  0  0
   41.4358    7.6302   16.7268 H   0  0  0  0  0  0
   38.5796    9.6920   15.4298 H   0  0  0  0  0  0
   39.1740    7.2231   16.6872 H   0  0  0  0  0  0
   37.1877    6.4768   16.3252 H   0  0  0  0  0  0
   36.8874    8.1626   16.0098 H   0  0  0  0  0  0
   35.8328    6.5517   14.3473 H   0  0  0  0  0  0
   36.7737    7.8314   13.6394 H   0  0  0  0  0  0
   34.8099    5.7005   12.9531 H   0  0  0  0  0  0
   34.8069    4.6645   11.5057 H   0  0  0  0  0  0
   37.3394    4.3306   14.1502 H   0  0  0  0  0  0
   37.5474    2.3274   15.5836 H   0  0  0  0  0  0
   35.8023    0.5779   15.5232 H   0  0  0  0  0  0
   33.8491    0.8314   14.0296 H   0  0  0  0  0  0
   33.6411    2.8345   12.5962 H   0  0  0  0  0  0
   39.6618    5.6865   12.7570 H   0  0  0  0  0  0
   39.0633    7.3185   12.7124 H   0  0  0  0  0  0
   40.7191    7.2135   14.4689 H   0  0  0  0  0  0
   40.0294    5.7622   15.1392 H   0  0  0  0  0  0
   40.0002   11.5474   15.6303 H   0  0  0  0  0  0
  1  2  2  0  0  0
  2  3  1  0  0  0
  2  4  1  0  0  0
  4  5  1  0  0  0
  4 38  1  0  0  0
  4 39  1  0  0  0
  5  6  1  0  0  0
  6 34  2  0  0  0
  6  7  1  0  0  0
  7  8  1  0  0  0
  7  9  2  0  0  0
  9 10  1  0  0  0
  9 33  1  0  0  0
 10 32  1  0  0  0
 10 11  2  0  0  0
 11 12  1  0  0  0
 11 40  1  0  0  0
 12 13  2  0  0  0
 12 41  1  0  0  0
 13 14  1  0  0  0
 13 42  1  0  0  0
 14 15  1  0  0  0
 14 32  2  0  0  0
 15 16  1  0  0  0
 15 43  1  0  0  0
 16 31  1  0  0  0
 16 17  1  0  0  0
 16 44  1  0  0  0
 17 18  1  0  0  0
 17 45  1  0  0  0
 17 46  1  0  0  0
 18 19  1  0  0  0
 18 47  1  0  0  0
 18 48  1  0  0  0
 19 20  1  0  0  0
 19 30  1  0  0  0
 20 21  2  0  0  0
 20 22  2  0  0  0
 20 23  1  0  0  0
 23 24  1  0  0  0
 23 49  1  0  0  0
 23 50  1  0  0  0
 24 29  1  0  0  0
 24 25  2  0  0  0
 25 26  1  0  0  0
 25 51  1  0  0  0
 26 27  2  0  0  0
 26 52  1  0  0  0
 27 28  1  0  0  0
 27 53  1  0  0  0
 28 29  2  0  0  0
 28 54  1  0  0  0
 29 55  1  0  0  0
 30 31  1  0  0  0
 30 56  1  0  0  0
 30 57  1  0  0  0
 31 58  1  0  0  0
 31 59  1  0  0  0
 32 60  1  0  0  0
 33 34  1  0  0  0
 34 35  1  0  0  0
 35 36  2  0  0  0
 35 37  1  0  0  0
M  CHG  2   3  -1  37  -1
M  END
> <i_m_stars>
3

> <s_m_entry_id>
559

> <s_m_entry_name>
PTP1B_206672qbp.1

> <r_user_dG.exp>
-11.4230277784695

> <r_m_Molecular_weight>
607.50826

> <s_m_Source_Path>
C:\Users\yujiethinkpad\Desktop\05A\PTP1B

> <s_m_Source_File>
PTP1B_206672qbp.sdf

> <i_m_Source_File_Index>
1

> <s_m_job_name>
align_ligands_7737

> <i_phase_Input_Structure_Number>
14

> <i_phase_Structure_Number>
14

> <r_phase_Similarity_to_Reference>
0.714818289591614

> <i_phase_Reference_Structure>
1

> <s_phase_Alignment_Method>
snapped core

> <s_phase_Alignment_Reason>


> <s_phase_Core_SMARTS>
a1aaaa1-a2aa(aaa2)AA3AAAAA3

> <s_f3d_frozen_atoms>
33 34 6 7 9 10 32 14 13 12 11 15 16 17 18 19 30 31 8 60 42 41 40 43 44 45 46 47 48 56 57 58 59

> <s_m_subgroup_title>
align_ligands_7737

> <s_m_subgroupid>
align_ligands_7737

> <b_m_subgroup_collapsed>
0

$$$$
