23469
                    3D
 Schrodinger Suite 2021-2.
 41 43  0  0  1  0            999 V2000
   40.7908   17.7648   11.6356 O   0  0  0  0  0  0
   40.5625   17.4304   12.8151 C   0  0  0  0  0  0
   39.5929   17.8219   13.5058 O   0  5  0  0  0  0
   41.6218   16.4964   13.3763 C   0  0  0  0  0  0
   41.2854   16.1009   14.6724 O   0  0  0  0  0  0
   42.0239   15.0810   15.1399 C   0  0  0  0  0  0
   41.7016   13.7217   14.9580 C   0  0  0  0  0  0
   40.4548   13.2417   13.6268 Br  0  0  0  0  0  0
   42.3207   12.8572   15.8236 C   0  0  0  0  0  0
   42.0813   11.4383   16.0951 C   0  0  0  0  0  0
   43.1208   10.5913   16.5330 C   0  0  0  0  0  0
   42.8741    9.2290   16.7850 C   0  0  0  0  0  0
   41.5998    8.6823   16.5435 C   0  0  0  0  0  0
   40.5486    9.5007   16.0642 C   0  0  0  0  0  0
   39.2161    8.9509   15.8327 N   0  0  0  0  0  0
   38.9397    7.6710   15.5808 C   0  0  0  0  0  0
   39.8044    6.8022   15.5166 O   0  0  0  0  0  0
   37.4689    7.4448   15.3919 C   0  0  0  0  0  0
   37.0201    6.3094   14.7277 C   0  0  0  0  0  0
   35.6574    6.0998   14.5526 C   0  0  0  0  0  0
   34.7434    7.0256   15.0418 C   0  0  0  0  0  0
   35.1922    8.1610   15.7059 C   0  0  0  0  0  0
   36.5549    8.3706   15.8810 C   0  0  0  0  0  0
   40.7967   10.8790   15.9080 C   0  0  0  0  0  0
   43.5649   13.7214   16.6887 S   0  0  0  0  0  0
   43.1192   15.2335   15.9330 C   0  0  0  0  0  0
   43.8952   16.4233   16.2767 C   0  0  0  0  0  0
   43.8127   17.4358   15.5434 O   0  0  0  0  0  0
   44.6139   16.4099   17.2965 O   0  5  0  0  0  0
   41.6981   15.6118   12.7440 H   0  0  0  0  0  0
   42.5830   17.0098   13.4003 H   0  0  0  0  0  0
   44.1166   10.9840   16.6786 H   0  0  0  0  0  0
   43.6646    8.6007   17.1681 H   0  0  0  0  0  0
   41.4478    7.6338   16.7464 H   0  0  0  0  0  0
   38.5375    9.6964   15.8942 H   0  0  0  0  0  0
   37.7317    5.5887   14.3469 H   0  0  0  0  0  0
   35.3080    5.2159   14.0356 H   0  0  0  0  0  0
   33.6825    6.8624   14.9055 H   0  0  0  0  0  0
   34.4807    8.8818   16.0867 H   0  0  0  0  0  0
   36.9043    9.2546   16.3980 H   0  0  0  0  0  0
   39.9730   11.5230   15.6359 H   0  0  0  0  0  0
  1  2  2  0  0  0
  2  3  1  0  0  0
  2  4  1  0  0  0
  4  5  1  0  0  0
  4 30  1  0  0  0
  4 31  1  0  0  0
  5  6  1  0  0  0
  6 26  2  0  0  0
  6  7  1  0  0  0
  7  8  1  0  0  0
  7  9  2  0  0  0
  9 10  1  0  0  0
  9 25  1  0  0  0
 10 24  1  0  0  0
 10 11  2  0  0  0
 11 12  1  0  0  0
 11 32  1  0  0  0
 12 13  2  0  0  0
 12 33  1  0  0  0
 13 14  1  0  0  0
 13 34  1  0  0  0
 14 15  1  0  0  0
 14 24  2  0  0  0
 15 16  1  0  0  0
 15 35  1  0  0  0
 16 17  2  0  0  0
 16 18  1  0  0  0
 18 23  1  0  0  0
 18 19  2  0  0  0
 19 20  1  0  0  0
 19 36  1  0  0  0
 20 21  2  0  0  0
 20 37  1  0  0  0
 21 22  1  0  0  0
 21 38  1  0  0  0
 22 23  2  0  0  0
 22 39  1  0  0  0
 23 40  1  0  0  0
 24 41  1  0  0  0
 25 26  1  0  0  0
 26 27  1  0  0  0
 27 28  2  0  0  0
 27 29  1  0  0  0
M  CHG  2   3  -1  29  -1
M  END
> <i_m_stars>
2

> <s_m_entry_id>
565

> <s_m_entry_name>
PTP1B_23469.1

> <r_user_dG.exp>
-7.72301857947764

> <r_m_Molecular_weight>
474.29474

> <s_m_Source_Path>
C:\Users\yujiethinkpad\Desktop\05A\PTP1B

> <s_m_Source_File>
PTP1B_23469.sdf

> <i_m_Source_File_Index>
1

> <s_m_job_name>
align_ligands_7737

> <i_phase_Input_Structure_Number>
20

> <i_phase_Structure_Number>
20

> <r_phase_Similarity_to_Reference>
0.814804549386474

> <i_phase_Reference_Structure>
1

> <s_phase_Alignment_Method>
snapped core

> <s_phase_Alignment_Reason>


> <s_phase_Core_SMARTS>
a1aaaa1-a2aaaaa2

> <s_f3d_frozen_atoms>
25 26 6 7 9 10 24 14 13 12 11 8 41 34 33 32

> <s_m_subgroup_title>
align_ligands_7737

> <s_m_subgroupid>
align_ligands_7737

> <b_m_subgroup_collapsed>
0

$$$$
