23466
                    3D
 Schrodinger Suite 2021-2.
 29 30  0  0  1  0            999 V2000
   39.2168    8.9502   15.8301 N   0  0  0  0  0  0
   40.5486    9.5007   16.0642 C   0  0  0  0  0  0
   41.5998    8.6823   16.5435 C   0  0  0  0  0  0
   42.8741    9.2290   16.7850 C   0  0  0  0  0  0
   43.1208   10.5913   16.5330 C   0  0  0  0  0  0
   42.0813   11.4383   16.0951 C   0  0  0  0  0  0
   42.3207   12.8572   15.8236 C   0  0  0  0  0  0
   43.5649   13.7214   16.6887 S   0  0  0  0  0  0
   43.1192   15.2335   15.9330 C   0  0  0  0  0  0
   43.8952   16.4233   16.2767 C   0  0  0  0  0  0
   43.8127   17.4358   15.5434 O   0  0  0  0  0  0
   44.6139   16.4099   17.2965 O   0  5  0  0  0  0
   42.0239   15.0810   15.1399 C   0  0  0  0  0  0
   41.2854   16.1009   14.6724 O   0  0  0  0  0  0
   41.6218   16.4964   13.3763 C   0  0  0  0  0  0
   40.5625   17.4304   12.8151 C   0  0  0  0  0  0
   40.7908   17.7648   11.6356 O   0  0  0  0  0  0
   39.5929   17.8219   13.5058 O   0  5  0  0  0  0
   41.7016   13.7217   14.9580 C   0  0  0  0  0  0
   40.4548   13.2417   13.6268 Br  0  0  0  0  0  0
   40.7967   10.8790   15.9080 C   0  0  0  0  0  0
   39.0482    7.9360   15.9484 H   0  0  0  0  0  0
   38.4415    9.5742   15.5459 H   0  0  0  0  0  0
   41.4339    7.6307   16.7278 H   0  0  0  0  0  0
   43.6676    8.6020   17.1639 H   0  0  0  0  0  0
   44.1183   10.9813   16.6725 H   0  0  0  0  0  0
   42.5801   17.0156   13.3921 H   0  0  0  0  0  0
   41.6952   15.6175   12.7358 H   0  0  0  0  0  0
   39.9841   11.5393   15.6416 H   0  0  0  0  0  0
  1  2  1  0  0  0
  1 22  1  0  0  0
  1 23  1  0  0  0
  2 21  1  0  0  0
  2  3  2  0  0  0
  3  4  1  0  0  0
  3 24  1  0  0  0
  4  5  2  0  0  0
  4 25  1  0  0  0
  5  6  1  0  0  0
  5 26  1  0  0  0
  6  7  1  0  0  0
  6 21  2  0  0  0
  7 19  2  0  0  0
  7  8  1  0  0  0
  8  9  1  0  0  0
  9 10  1  0  0  0
  9 13  2  0  0  0
 10 11  2  0  0  0
 10 12  1  0  0  0
 13 14  1  0  0  0
 13 19  1  0  0  0
 14 15  1  0  0  0
 15 16  1  0  0  0
 15 27  1  0  0  0
 15 28  1  0  0  0
 16 17  2  0  0  0
 16 18  1  0  0  0
 19 20  1  0  0  0
 21 29  1  0  0  0
M  CHG  2  12  -1  18  -1
M  END
> <i_m_stars>
2

> <s_m_entry_id>
562

> <s_m_entry_name>
PTP1B_23466.1

> <r_user_dG.exp>
-7.84784627805605

> <r_m_Molecular_weight>
370.18541

> <s_m_Source_Path>
C:\Users\yujiethinkpad\Desktop\05A\PTP1B

> <s_m_Source_File>
PTP1B_23466.sdf

> <i_m_Source_File_Index>
1

> <s_m_job_name>
align_ligands_7737

> <i_phase_Input_Structure_Number>
17

> <i_phase_Structure_Number>
17

> <r_phase_Similarity_to_Reference>
0.69961410724924

> <i_phase_Reference_Structure>
1

> <s_phase_Alignment_Method>
snapped core

> <s_phase_Alignment_Reason>


> <s_phase_Core_SMARTS>
a1aaaa1-a2aaaaa2

> <s_f3d_frozen_atoms>
8 9 13 19 7 6 21 2 3 4 5 20 29 24 25 26

> <s_m_subgroup_title>
align_ligands_7737

> <s_m_subgroupid>
align_ligands_7737

> <b_m_subgroup_collapsed>
0

$$$$
