23473
                    3D
 Schrodinger Suite 2021-2.
 41 43  0  0  1  0            999 V2000
   40.7908   17.7648   11.6356 O   0  0  0  0  0  0
   40.5625   17.4304   12.8151 C   0  0  0  0  0  0
   39.5929   17.8219   13.5058 O   0  5  0  0  0  0
   41.6218   16.4964   13.3763 C   0  0  0  0  0  0
   41.2854   16.1009   14.6724 O   0  0  0  0  0  0
   42.0239   15.0810   15.1399 C   0  0  0  0  0  0
   41.7016   13.7217   14.9580 C   0  0  0  0  0  0
   40.4548   13.2417   13.6268 Br  0  0  0  0  0  0
   42.3207   12.8572   15.8236 C   0  0  0  0  0  0
   42.0813   11.4383   16.0951 C   0  0  0  0  0  0
   43.1208   10.5913   16.5330 C   0  0  0  0  0  0
   42.8741    9.2290   16.7850 C   0  0  0  0  0  0
   41.5998    8.6823   16.5435 C   0  0  0  0  0  0
   40.5486    9.5007   16.0642 C   0  0  0  0  0  0
   39.2897    8.9804   15.8434 O   0  0  0  0  0  0
   39.1809    7.6175   16.0307 C   0  0  0  0  0  0
   37.7699    7.1867   15.7594 C   0  0  0  0  0  0
   36.8384    7.1682   16.7907 C   0  0  0  0  0  0
   35.5311    6.7690   16.5393 C   0  0  0  0  0  0
   35.1553    6.3883   15.2566 C   0  0  0  0  0  0
   36.0867    6.4067   14.2253 C   0  0  0  0  0  0
   37.3941    6.8059   14.4767 C   0  0  0  0  0  0
   40.7967   10.8790   15.9080 C   0  0  0  0  0  0
   43.5649   13.7214   16.6887 S   0  0  0  0  0  0
   43.1192   15.2335   15.9330 C   0  0  0  0  0  0
   43.8952   16.4233   16.2767 C   0  0  0  0  0  0
   43.8127   17.4358   15.5434 O   0  0  0  0  0  0
   44.6139   16.4099   17.2965 O   0  5  0  0  0  0
   41.6981   15.6118   12.7440 H   0  0  0  0  0  0
   42.5830   17.0098   13.4003 H   0  0  0  0  0  0
   44.1179   10.9826   16.6731 H   0  0  0  0  0  0
   43.6661    8.5999   17.1637 H   0  0  0  0  0  0
   41.4536    7.6303   16.7350 H   0  0  0  0  0  0
   39.8559    7.1019   15.3477 H   0  0  0  0  0  0
   39.4451    7.3698   17.0587 H   0  0  0  0  0  0
   37.1311    7.4647   17.7894 H   0  0  0  0  0  0
   34.8059    6.7547   17.3423 H   0  0  0  0  0  0
   34.1375    6.0774   15.0609 H   0  0  0  0  0  0
   35.7941    6.1102   13.2266 H   0  0  0  0  0  0
   38.1192    6.8202   13.6737 H   0  0  0  0  0  0
   39.9689   11.5199   15.6418 H   0  0  0  0  0  0
  1  2  2  0  0  0
  2  3  1  0  0  0
  2  4  1  0  0  0
  4  5  1  0  0  0
  4 29  1  0  0  0
  4 30  1  0  0  0
  5  6  1  0  0  0
  6 25  2  0  0  0
  6  7  1  0  0  0
  7  8  1  0  0  0
  7  9  2  0  0  0
  9 10  1  0  0  0
  9 24  1  0  0  0
 10 23  1  0  0  0
 10 11  2  0  0  0
 11 12  1  0  0  0
 11 31  1  0  0  0
 12 13  2  0  0  0
 12 32  1  0  0  0
 13 14  1  0  0  0
 13 33  1  0  0  0
 14 15  1  0  0  0
 14 23  2  0  0  0
 15 16  1  0  0  0
 16 17  1  0  0  0
 16 34  1  0  0  0
 16 35  1  0  0  0
 17 22  1  0  0  0
 17 18  2  0  0  0
 18 19  1  0  0  0
 18 36  1  0  0  0
 19 20  2  0  0  0
 19 37  1  0  0  0
 20 21  1  0  0  0
 20 38  1  0  0  0
 21 22  2  0  0  0
 21 39  1  0  0  0
 22 40  1  0  0  0
 23 41  1  0  0  0
 24 25  1  0  0  0
 25 26  1  0  0  0
 26 27  2  0  0  0
 26 28  1  0  0  0
M  CHG  2   3  -1  28  -1
M  END
> <i_m_stars>
2

> <s_m_entry_id>
547

> <s_m_entry_name>
PTP1B_23473.1

> <r_user_dG.exp>
-8.3891313751788

> <r_m_Molecular_weight>
461.29601

> <s_m_Source_Path>
C:\Users\yujiethinkpad\Desktop\05A\PTP1B

> <s_m_Source_File>
PTP1B_23473.sdf

> <i_m_Source_File_Index>
1

> <s_m_job_name>
align_ligands_7737

> <i_phase_Input_Structure_Number>
2

> <i_phase_Structure_Number>
2

> <r_phase_Similarity_to_Reference>
0.821535940829711

> <i_phase_Reference_Structure>
1

> <s_phase_Alignment_Method>
snapped core

> <s_phase_Alignment_Reason>


> <s_phase_Core_SMARTS>
a1aaaa1-a2aaaaa2

> <s_f3d_frozen_atoms>
24 25 6 7 9 10 23 14 13 12 11 8 41 33 32 31

> <s_m_subgroup_title>
align_ligands_7737

> <s_m_subgroupid>
align_ligands_7737

> <b_m_subgroup_collapsed>
0

$$$$
