23477
                    3D
 Schrodinger Suite 2021-2.
 43 45  0  0  1  0            999 V2000
   40.7908   17.7648   11.6356 O   0  0  0  0  0  0
   40.5625   17.4304   12.8151 C   0  0  0  0  0  0
   39.5929   17.8219   13.5058 O   0  5  0  0  0  0
   41.6218   16.4964   13.3763 C   0  0  0  0  0  0
   41.2854   16.1009   14.6724 O   0  0  0  0  0  0
   42.0239   15.0810   15.1399 C   0  0  0  0  0  0
   41.7016   13.7217   14.9580 C   0  0  0  0  0  0
   40.4548   13.2417   13.6268 Br  0  0  0  0  0  0
   42.3207   12.8572   15.8236 C   0  0  0  0  0  0
   42.0813   11.4383   16.0951 C   0  0  0  0  0  0
   43.1208   10.5913   16.5330 C   0  0  0  0  0  0
   42.8741    9.2290   16.7850 C   0  0  0  0  0  0
   41.5998    8.6823   16.5435 C   0  0  0  0  0  0
   40.5486    9.5007   16.0642 C   0  0  0  0  0  0
   39.2812    9.0104   15.6810 N   0  0  0  0  0  0
   38.9544    7.5842   15.6826 C   0  0  0  0  0  0
   39.7722    6.7181   14.6830 C   0  0  0  0  0  0
   39.1013    6.4230   13.3326 C   0  0  0  0  0  0
   37.6865    5.8752   13.5318 O   0  0  0  0  0  0
   36.8484    6.9377   14.2589 C   0  0  0  0  0  0
   37.4305    7.2916   15.6430 C   0  0  0  0  0  0
   40.7967   10.8790   15.9080 C   0  0  0  0  0  0
   43.5649   13.7214   16.6887 S   0  0  0  0  0  0
   43.1192   15.2335   15.9330 C   0  0  0  0  0  0
   43.8952   16.4233   16.2767 C   0  0  0  0  0  0
   43.8127   17.4358   15.5434 O   0  0  0  0  0  0
   44.6139   16.4099   17.2965 O   0  5  0  0  0  0
   42.5830   17.0098   13.4003 H   0  0  0  0  0  0
   41.6981   15.6118   12.7440 H   0  0  0  0  0  0
   44.1180   10.9824   16.6729 H   0  0  0  0  0  0
   43.6658    8.5983   17.1616 H   0  0  0  0  0  0
   41.4315    7.6307   16.7253 H   0  0  0  0  0  0
   38.5153    9.6629   15.5943 H   0  0  0  0  0  0
   39.3551    7.1722   16.6087 H   0  0  0  0  0  0
   40.7191    7.2086   14.4579 H   0  0  0  0  0  0
   40.0212    5.7569   15.1329 H   0  0  0  0  0  0
   39.0366    7.3355   12.7399 H   0  0  0  0  0  0
   39.6896    5.7112   12.7536 H   0  0  0  0  0  0
   36.8142    7.8409   13.6499 H   0  0  0  0  0  0
   35.8204    6.5934   14.3716 H   0  0  0  0  0  0
   37.1867    6.4695   16.3160 H   0  0  0  0  0  0
   36.8781    8.1597   16.0027 H   0  0  0  0  0  0
   39.9882   11.5403   15.6378 H   0  0  0  0  0  0
  1  2  2  0  0  0
  2  3  1  0  0  0
  2  4  1  0  0  0
  4  5  1  0  0  0
  4 28  1  0  0  0
  4 29  1  0  0  0
  5  6  1  0  0  0
  6 24  2  0  0  0
  6  7  1  0  0  0
  7  8  1  0  0  0
  7  9  2  0  0  0
  9 10  1  0  0  0
  9 23  1  0  0  0
 10 22  1  0  0  0
 10 11  2  0  0  0
 11 12  1  0  0  0
 11 30  1  0  0  0
 12 13  2  0  0  0
 12 31  1  0  0  0
 13 14  1  0  0  0
 13 32  1  0  0  0
 14 15  1  0  0  0
 14 22  2  0  0  0
 15 16  1  0  0  0
 15 33  1  0  0  0
 16 21  1  0  0  0
 16 17  1  0  0  0
 16 34  1  0  0  0
 17 18  1  0  0  0
 17 35  1  0  0  0
 17 36  1  0  0  0
 18 19  1  0  0  0
 18 37  1  0  0  0
 18 38  1  0  0  0
 19 20  1  0  0  0
 20 21  1  0  0  0
 20 39  1  0  0  0
 20 40  1  0  0  0
 21 41  1  0  0  0
 21 42  1  0  0  0
 22 43  1  0  0  0
 23 24  1  0  0  0
 24 25  1  0  0  0
 25 26  2  0  0  0
 25 27  1  0  0  0
M  CHG  2   3  -1  27  -1
M  END
> <i_m_stars>
2

> <s_m_entry_id>
551

> <s_m_entry_name>
PTP1B_23477.1

> <r_user_dG.exp>
-8.85316590670652

> <r_m_Molecular_weight>
454.30432

> <s_m_Source_Path>
C:\Users\yujiethinkpad\Desktop\05A\PTP1B

> <s_m_Source_File>
PTP1B_23477.sdf

> <i_m_Source_File_Index>
1

> <s_m_job_name>
align_ligands_7737

> <i_phase_Input_Structure_Number>
6

> <i_phase_Structure_Number>
6

> <r_phase_Similarity_to_Reference>
0.94734265958841

> <i_phase_Reference_Structure>
1

> <s_phase_Alignment_Method>
snapped core

> <s_phase_Alignment_Reason>


> <s_phase_Core_SMARTS>
a1aaaa1-a2aa(aaa2)AA3AAAAA3

> <s_f3d_frozen_atoms>
23 24 6 7 9 10 22 14 13 12 11 15 16 21 20 19 18 17 8 43 32 31 30 33 34 41 42 39 40 37 38 35 36

> <s_m_subgroup_title>
align_ligands_7737

> <s_m_subgroupid>
align_ligands_7737

> <b_m_subgroup_collapsed>
0

$$$$
