23479
                    3D
 Schrodinger Suite 2021-2.
 49 51  0  0  1  0            999 V2000
   38.3785    3.8729   12.5124 C   0  0  0  0  0  0
   37.2836    4.6405   13.1920 C   0  0  0  0  0  0
   36.1554    4.2030   13.4079 O   0  0  0  0  0  0
   37.6865    5.8752   13.5318 N   0  0  0  0  0  0
   39.1013    6.4230   13.3326 C   0  0  0  0  0  0
   39.7722    6.7181   14.6830 C   0  0  0  0  0  0
   38.9544    7.5842   15.6826 C   0  0  0  0  0  0
   39.2812    9.0104   15.6810 N   0  0  0  0  0  0
   40.5486    9.5007   16.0642 C   0  0  0  0  0  0
   41.5998    8.6823   16.5435 C   0  0  0  0  0  0
   42.8741    9.2290   16.7850 C   0  0  0  0  0  0
   43.1208   10.5913   16.5330 C   0  0  0  0  0  0
   42.0813   11.4383   16.0951 C   0  0  0  0  0  0
   42.3207   12.8572   15.8236 C   0  0  0  0  0  0
   43.5649   13.7214   16.6887 S   0  0  0  0  0  0
   43.1192   15.2335   15.9330 C   0  0  0  0  0  0
   43.8952   16.4233   16.2767 C   0  0  0  0  0  0
   43.8127   17.4358   15.5434 O   0  0  0  0  0  0
   44.6139   16.4099   17.2965 O   0  5  0  0  0  0
   42.0239   15.0810   15.1399 C   0  0  0  0  0  0
   41.2854   16.1009   14.6724 O   0  0  0  0  0  0
   41.6218   16.4964   13.3763 C   0  0  0  0  0  0
   40.5625   17.4304   12.8151 C   0  0  0  0  0  0
   40.7908   17.7648   11.6356 O   0  0  0  0  0  0
   39.5929   17.8219   13.5058 O   0  5  0  0  0  0
   41.7016   13.7217   14.9580 C   0  0  0  0  0  0
   40.4548   13.2417   13.6268 Br  0  0  0  0  0  0
   40.7967   10.8790   15.9080 C   0  0  0  0  0  0
   37.4305    7.2916   15.6430 C   0  0  0  0  0  0
   36.8484    6.9377   14.2589 C   0  0  0  0  0  0
   39.2723    4.4936   12.4495 H   0  0  0  0  0  0
   38.6009    2.9728   13.0855 H   0  0  0  0  0  0
   38.0580    3.5945   11.5085 H   0  0  0  0  0  0
   39.7279    5.7399   12.7592 H   0  0  0  0  0  0
   39.0359    7.3374   12.7430 H   0  0  0  0  0  0
   40.0008    5.7797   15.1883 H   0  0  0  0  0  0
   40.7268    7.2195   14.5233 H   0  0  0  0  0  0
   39.1681    7.2649   16.7026 H   0  0  0  0  0  0
   38.5486    9.6401   15.3854 H   0  0  0  0  0  0
   41.4617    7.6316   16.7364 H   0  0  0  0  0  0
   43.6664    8.6004   17.1638 H   0  0  0  0  0  0
   44.1176   10.9835   16.6728 H   0  0  0  0  0  0
   42.5801   17.0156   13.3921 H   0  0  0  0  0  0
   41.6952   15.6175   12.7358 H   0  0  0  0  0  0
   39.9814   11.5364   15.6422 H   0  0  0  0  0  0
   37.2016    6.4596   16.3090 H   0  0  0  0  0  0
   36.8757    8.1491   16.0239 H   0  0  0  0  0  0
   36.7508    7.8549   13.6783 H   0  0  0  0  0  0
   35.8365    6.5514   14.3814 H   0  0  0  0  0  0
  1  2  1  0  0  0
  1 31  1  0  0  0
  1 32  1  0  0  0
  1 33  1  0  0  0
  2  3  2  0  0  0
  2  4  1  0  0  0
  4 30  1  0  0  0
  4  5  1  0  0  0
  5  6  1  0  0  0
  5 34  1  0  0  0
  5 35  1  0  0  0
  6  7  1  0  0  0
  6 36  1  0  0  0
  6 37  1  0  0  0
  7  8  1  0  0  0
  7 29  1  0  0  0
  7 38  1  0  0  0
  8  9  1  0  0  0
  8 39  1  0  0  0
  9 28  1  0  0  0
  9 10  2  0  0  0
 10 11  1  0  0  0
 10 40  1  0  0  0
 11 12  2  0  0  0
 11 41  1  0  0  0
 12 13  1  0  0  0
 12 42  1  0  0  0
 13 14  1  0  0  0
 13 28  2  0  0  0
 14 26  2  0  0  0
 14 15  1  0  0  0
 15 16  1  0  0  0
 16 17  1  0  0  0
 16 20  2  0  0  0
 17 18  2  0  0  0
 17 19  1  0  0  0
 20 21  1  0  0  0
 20 26  1  0  0  0
 21 22  1  0  0  0
 22 23  1  0  0  0
 22 43  1  0  0  0
 22 44  1  0  0  0
 23 24  2  0  0  0
 23 25  1  0  0  0
 26 27  1  0  0  0
 28 45  1  0  0  0
 29 30  1  0  0  0
 29 46  1  0  0  0
 29 47  1  0  0  0
 30 48  1  0  0  0
 30 49  1  0  0  0
M  CHG  2  19  -1  25  -1
M  END
> <i_m_stars>
2

> <s_m_entry_id>
552

> <s_m_entry_name>
PTP1B_23479.1

> <r_user_dG.exp>
-9.14235922654499

> <r_m_Molecular_weight>
495.35723

> <s_m_Source_Path>
C:\Users\yujiethinkpad\Desktop\05A\PTP1B

> <s_m_Source_File>
PTP1B_23479.sdf

> <i_m_Source_File_Index>
1

> <s_m_job_name>
align_ligands_7737

> <i_phase_Input_Structure_Number>
7

> <i_phase_Structure_Number>
7

> <r_phase_Similarity_to_Reference>
0.920162422012922

> <i_phase_Reference_Structure>
1

> <s_phase_Alignment_Method>
snapped core

> <s_phase_Alignment_Reason>


> <s_phase_Core_SMARTS>
a1aaaa1-a2aa(aaa2)AA3AAAAA3

> <s_f3d_frozen_atoms>
15 16 20 26 14 13 28 9 10 11 12 8 7 29 30 4 5 6 27 45 40 41 42 39 38 46 47 48 49 34 35 36 37

> <s_m_subgroup_title>
align_ligands_7737

> <s_m_subgroupid>
align_ligands_7737

> <b_m_subgroup_collapsed>
0

$$$$
