23470
                    3D
 Schrodinger Suite 2021-2.
 42 43  0  0  1  0            999 V2000
   37.5975    5.6163   13.8300 C   0  0  0  0  0  0
   37.0400    6.1521   15.1154 C   0  0  0  0  0  0
   37.3482    5.1973   16.2305 C   0  0  0  0  0  0
   37.6440    7.4494   15.4045 N   0  0  0  0  0  0
   38.9420    7.6748   15.5787 C   0  0  0  0  0  0
   39.7962    6.7981   15.5143 O   0  0  0  0  0  0
   39.2168    8.9505   15.8299 N   0  0  0  0  0  0
   40.5486    9.5007   16.0642 C   0  0  0  0  0  0
   41.5998    8.6823   16.5435 C   0  0  0  0  0  0
   42.8741    9.2290   16.7850 C   0  0  0  0  0  0
   43.1208   10.5913   16.5330 C   0  0  0  0  0  0
   42.0813   11.4383   16.0951 C   0  0  0  0  0  0
   42.3207   12.8572   15.8236 C   0  0  0  0  0  0
   43.5649   13.7214   16.6887 S   0  0  0  0  0  0
   43.1192   15.2335   15.9330 C   0  0  0  0  0  0
   43.8952   16.4233   16.2767 C   0  0  0  0  0  0
   43.8127   17.4358   15.5434 O   0  0  0  0  0  0
   44.6139   16.4099   17.2965 O   0  5  0  0  0  0
   42.0239   15.0810   15.1399 C   0  0  0  0  0  0
   41.2854   16.1009   14.6724 O   0  0  0  0  0  0
   41.6218   16.4964   13.3763 C   0  0  0  0  0  0
   40.5625   17.4304   12.8151 C   0  0  0  0  0  0
   40.7908   17.7648   11.6356 O   0  0  0  0  0  0
   39.5929   17.8219   13.5058 O   0  5  0  0  0  0
   41.7016   13.7217   14.9580 C   0  0  0  0  0  0
   40.4548   13.2417   13.6268 Br  0  0  0  0  0  0
   40.7967   10.8790   15.9080 C   0  0  0  0  0  0
   37.1466    4.6478   13.6141 H   0  0  0  0  0  0
   37.3735    6.3101   13.0197 H   0  0  0  0  0  0
   38.6775    5.5019   13.9221 H   0  0  0  0  0  0
   35.9599    6.2665   15.0232 H   0  0  0  0  0  0
   36.8973    4.2287   16.0146 H   0  0  0  0  0  0
   38.4283    5.0828   16.3226 H   0  0  0  0  0  0
   36.9431    5.5866   17.1645 H   0  0  0  0  0  0
   36.9175    8.1466   15.4508 H   0  0  0  0  0  0
   38.5393    9.6944   15.8894 H   0  0  0  0  0  0
   41.4532    7.6330   16.7469 H   0  0  0  0  0  0
   43.6643    8.6021   17.1713 H   0  0  0  0  0  0
   44.1139   10.9864   16.6898 H   0  0  0  0  0  0
   42.5801   17.0156   13.3921 H   0  0  0  0  0  0
   41.6952   15.6175   12.7358 H   0  0  0  0  0  0
   39.9859   11.5353   15.6260 H   0  0  0  0  0  0
  1  2  1  0  0  0
  1 28  1  0  0  0
  1 29  1  0  0  0
  1 30  1  0  0  0
  2  3  1  0  0  0
  2  4  1  0  0  0
  2 31  1  0  0  0
  3 32  1  0  0  0
  3 33  1  0  0  0
  3 34  1  0  0  0
  4  5  1  0  0  0
  4 35  1  0  0  0
  5  6  2  0  0  0
  5  7  1  0  0  0
  7  8  1  0  0  0
  7 36  1  0  0  0
  8 27  1  0  0  0
  8  9  2  0  0  0
  9 10  1  0  0  0
  9 37  1  0  0  0
 10 11  2  0  0  0
 10 38  1  0  0  0
 11 12  1  0  0  0
 11 39  1  0  0  0
 12 13  1  0  0  0
 12 27  2  0  0  0
 13 25  2  0  0  0
 13 14  1  0  0  0
 14 15  1  0  0  0
 15 16  1  0  0  0
 15 19  2  0  0  0
 16 17  2  0  0  0
 16 18  1  0  0  0
 19 20  1  0  0  0
 19 25  1  0  0  0
 20 21  1  0  0  0
 21 22  1  0  0  0
 21 40  1  0  0  0
 21 41  1  0  0  0
 22 23  2  0  0  0
 22 24  1  0  0  0
 25 26  1  0  0  0
 27 42  1  0  0  0
M  CHG  2  18  -1  24  -1
M  END
> <i_m_stars>
2

> <s_m_entry_id>
566

> <s_m_entry_name>
PTP1B_23470.1

> <r_user_dG.exp>
-7.72301857947764

> <r_m_Molecular_weight>
455.2919

> <s_m_Source_Path>
C:\Users\yujiethinkpad\Desktop\05A\PTP1B

> <s_m_Source_File>
PTP1B_23470.sdf

> <i_m_Source_File_Index>
1

> <s_m_job_name>
align_ligands_7737

> <i_phase_Input_Structure_Number>
21

> <i_phase_Structure_Number>
21

> <r_phase_Similarity_to_Reference>
0.8286903152277

> <i_phase_Reference_Structure>
1

> <s_phase_Alignment_Method>
snapped core

> <s_phase_Alignment_Reason>


> <s_phase_Core_SMARTS>
a1aaaa1-a2aaaaa2

> <s_f3d_frozen_atoms>
14 15 19 25 13 12 27 8 9 10 11 26 42 37 38 39

> <s_m_subgroup_title>
align_ligands_7737

> <s_m_subgroupid>
align_ligands_7737

> <b_m_subgroup_collapsed>
0

$$$$
