23471
                    3D
 Schrodinger Suite 2021-2.
 35 36  0  0  1  0            999 V2000
   37.2195    6.2005   15.1392 C   0  0  0  0  0  0
   37.6077    7.4976   15.4060 O   0  0  0  0  0  0
   38.9438    7.6734   15.5771 C   0  0  0  0  0  0
   39.7797    6.7791   15.5091 O   0  0  0  0  0  0
   39.2174    8.9496   15.8283 N   0  0  0  0  0  0
   40.5486    9.5007   16.0642 C   0  0  0  0  0  0
   41.5998    8.6823   16.5435 C   0  0  0  0  0  0
   42.8741    9.2290   16.7850 C   0  0  0  0  0  0
   43.1208   10.5913   16.5330 C   0  0  0  0  0  0
   42.0813   11.4383   16.0951 C   0  0  0  0  0  0
   42.3207   12.8572   15.8236 C   0  0  0  0  0  0
   43.5649   13.7214   16.6887 S   0  0  0  0  0  0
   43.1192   15.2335   15.9330 C   0  0  0  0  0  0
   43.8952   16.4233   16.2767 C   0  0  0  0  0  0
   43.8127   17.4358   15.5434 O   0  0  0  0  0  0
   44.6139   16.4099   17.2965 O   0  5  0  0  0  0
   42.0239   15.0810   15.1399 C   0  0  0  0  0  0
   41.2854   16.1009   14.6724 O   0  0  0  0  0  0
   41.6218   16.4964   13.3763 C   0  0  0  0  0  0
   40.5625   17.4304   12.8151 C   0  0  0  0  0  0
   40.7908   17.7648   11.6356 O   0  0  0  0  0  0
   39.5929   17.8219   13.5058 O   0  5  0  0  0  0
   41.7016   13.7217   14.9580 C   0  0  0  0  0  0
   40.4548   13.2417   13.6268 Br  0  0  0  0  0  0
   40.7967   10.8790   15.9080 C   0  0  0  0  0  0
   36.1369    6.1627   15.0188 H   0  0  0  0  0  0
   37.6993    5.8591   14.2219 H   0  0  0  0  0  0
   37.5159    5.5551   15.9661 H   0  0  0  0  0  0
   38.5390    9.6935   15.8866 H   0  0  0  0  0  0
   41.4617    7.6281   16.7246 H   0  0  0  0  0  0
   43.6677    8.5995   17.1596 H   0  0  0  0  0  0
   44.1190   10.9815   16.6684 H   0  0  0  0  0  0
   42.5801   17.0156   13.3921 H   0  0  0  0  0  0
   41.6952   15.6175   12.7358 H   0  0  0  0  0  0
   39.9813   11.5376   15.6462 H   0  0  0  0  0  0
  1  2  1  0  0  0
  1 26  1  0  0  0
  1 27  1  0  0  0
  1 28  1  0  0  0
  2  3  1  0  0  0
  3  4  2  0  0  0
  3  5  1  0  0  0
  5  6  1  0  0  0
  5 29  1  0  0  0
  6 25  1  0  0  0
  6  7  2  0  0  0
  7  8  1  0  0  0
  7 30  1  0  0  0
  8  9  2  0  0  0
  8 31  1  0  0  0
  9 10  1  0  0  0
  9 32  1  0  0  0
 10 11  1  0  0  0
 10 25  2  0  0  0
 11 23  2  0  0  0
 11 12  1  0  0  0
 12 13  1  0  0  0
 13 14  1  0  0  0
 13 17  2  0  0  0
 14 15  2  0  0  0
 14 16  1  0  0  0
 17 18  1  0  0  0
 17 23  1  0  0  0
 18 19  1  0  0  0
 19 20  1  0  0  0
 19 33  1  0  0  0
 19 34  1  0  0  0
 20 21  2  0  0  0
 20 22  1  0  0  0
 23 24  1  0  0  0
 25 35  1  0  0  0
M  CHG  2  16  -1  22  -1
M  END
> <i_m_stars>
2

> <s_m_entry_id>
567

> <s_m_entry_name>
PTP1B_23471.1

> <r_user_dG.exp>
-7.75184064198728

> <r_m_Molecular_weight>
428.22245

> <s_m_Source_Path>
C:\Users\yujiethinkpad\Desktop\05A\PTP1B

> <s_m_Source_File>
PTP1B_23471.sdf

> <i_m_Source_File_Index>
1

> <s_m_job_name>
align_ligands_7737

> <i_phase_Input_Structure_Number>
22

> <i_phase_Structure_Number>
22

> <r_phase_Similarity_to_Reference>
0.775704041819834

> <i_phase_Reference_Structure>
1

> <s_phase_Alignment_Method>
snapped core

> <s_phase_Alignment_Reason>


> <s_phase_Core_SMARTS>
a1aaaa1-a2aaaaa2

> <s_f3d_frozen_atoms>
12 13 17 23 11 10 25 6 7 8 9 24 35 30 31 32

> <s_m_subgroup_title>
align_ligands_7737

> <s_m_subgroupid>
align_ligands_7737

> <b_m_subgroup_collapsed>
0

$$$$
