23472
                    3D
 Schrodinger Suite 2021-2.
 42 44  0  0  1  0            999 V2000
   40.7908   17.7648   11.6356 O   0  0  0  0  0  0
   40.5625   17.4304   12.8151 C   0  0  0  0  0  0
   39.5929   17.8219   13.5058 O   0  5  0  0  0  0
   41.6218   16.4964   13.3763 C   0  0  0  0  0  0
   41.2854   16.1009   14.6724 O   0  0  0  0  0  0
   42.0239   15.0810   15.1399 C   0  0  0  0  0  0
   41.7016   13.7217   14.9580 C   0  0  0  0  0  0
   40.4548   13.2417   13.6268 Br  0  0  0  0  0  0
   42.3207   12.8572   15.8236 C   0  0  0  0  0  0
   42.0813   11.4383   16.0951 C   0  0  0  0  0  0
   43.1208   10.5913   16.5330 C   0  0  0  0  0  0
   42.8741    9.2290   16.7850 C   0  0  0  0  0  0
   41.5998    8.6823   16.5435 C   0  0  0  0  0  0
   40.5486    9.5007   16.0642 C   0  0  0  0  0  0
   39.2171    8.9504   15.8282 N   0  0  0  0  0  0
   38.9045    7.2666   16.1364 S   0  0  0  0  0  0
   40.1838    6.6312   16.4704 O   0  0  0  0  0  0
   37.7474    7.1869   17.0346 O   0  0  0  0  0  0
   38.3955    6.6500   14.5460 C   0  0  0  0  0  0
   37.0480    6.6721   14.1930 C   0  0  0  0  0  0
   36.6397    6.1923   12.9516 C   0  0  0  0  0  0
   37.5879    5.6911   12.0679 C   0  0  0  0  0  0
   37.2015    5.2229   10.8603 F   0  0  0  0  0  0
   38.9333    5.6695   12.4213 C   0  0  0  0  0  0
   39.3459    6.1484   13.6616 C   0  0  0  0  0  0
   40.7967   10.8790   15.9080 C   0  0  0  0  0  0
   43.5649   13.7214   16.6887 S   0  0  0  0  0  0
   43.1192   15.2335   15.9330 C   0  0  0  0  0  0
   43.8952   16.4233   16.2767 C   0  0  0  0  0  0
   43.8127   17.4358   15.5434 O   0  0  0  0  0  0
   44.6139   16.4099   17.2965 O   0  5  0  0  0  0
   41.6981   15.6118   12.7440 H   0  0  0  0  0  0
   42.5830   17.0098   13.4003 H   0  0  0  0  0  0
   44.1141   10.9868   16.6864 H   0  0  0  0  0  0
   43.6638    8.6001   17.1685 H   0  0  0  0  0  0
   41.4381    7.6332   16.7359 H   0  0  0  0  0  0
   38.4591    9.5617   15.4778 H   0  0  0  0  0  0
   36.3153    7.0636   14.8858 H   0  0  0  0  0  0
   35.5962    6.2066   12.6719 H   0  0  0  0  0  0
   39.6588    5.2769   11.7236 H   0  0  0  0  0  0
   40.3926    6.1304   13.9339 H   0  0  0  0  0  0
   39.9732   11.5193   15.6266 H   0  0  0  0  0  0
  1  2  2  0  0  0
  2  3  1  0  0  0
  2  4  1  0  0  0
  4  5  1  0  0  0
  4 32  1  0  0  0
  4 33  1  0  0  0
  5  6  1  0  0  0
  6 28  2  0  0  0
  6  7  1  0  0  0
  7  8  1  0  0  0
  7  9  2  0  0  0
  9 10  1  0  0  0
  9 27  1  0  0  0
 10 26  1  0  0  0
 10 11  2  0  0  0
 11 12  1  0  0  0
 11 34  1  0  0  0
 12 13  2  0  0  0
 12 35  1  0  0  0
 13 14  1  0  0  0
 13 36  1  0  0  0
 14 15  1  0  0  0
 14 26  2  0  0  0
 15 16  1  0  0  0
 15 37  1  0  0  0
 16 17  2  0  0  0
 16 18  2  0  0  0
 16 19  1  0  0  0
 19 25  1  0  0  0
 19 20  2  0  0  0
 20 21  1  0  0  0
 20 38  1  0  0  0
 21 22  2  0  0  0
 21 39  1  0  0  0
 22 23  1  0  0  0
 22 24  1  0  0  0
 24 25  2  0  0  0
 24 40  1  0  0  0
 25 41  1  0  0  0
 26 42  1  0  0  0
 27 28  1  0  0  0
 28 29  1  0  0  0
 29 30  2  0  0  0
 29 31  1  0  0  0
M  CHG  2   3  -1  31  -1
M  END
> <i_m_stars>
2

> <s_m_entry_id>
568

> <s_m_entry_name>
PTP1B_23472.1

> <r_user_dG.exp>
-8.64628903953511

> <r_m_Molecular_weight>
528.33742

> <s_m_Source_Path>
C:\Users\yujiethinkpad\Desktop\05A\PTP1B

> <s_m_Source_File>
PTP1B_23472.sdf

> <i_m_Source_File_Index>
1

> <s_m_job_name>
align_ligands_7737

> <i_phase_Input_Structure_Number>
23

> <i_phase_Structure_Number>
23

> <r_phase_Similarity_to_Reference>
0.846557791112743

> <i_phase_Reference_Structure>
1

> <s_phase_Alignment_Method>
snapped core

> <s_phase_Alignment_Reason>


> <s_phase_Core_SMARTS>
a1aaaa1-a2aaaaa2

> <s_f3d_frozen_atoms>
27 28 6 7 9 10 26 14 13 12 11 8 42 36 35 34

> <s_m_subgroup_title>
align_ligands_7737

> <s_m_subgroupid>
align_ligands_7737

> <b_m_subgroup_collapsed>
0

$$$$
