23476
                    3D
 Schrodinger Suite 2021-2.
 48 50  0  0  1  0            999 V2000
   40.7908   17.7648   11.6356 O   0  0  0  0  0  0
   40.5625   17.4304   12.8151 C   0  0  0  0  0  0
   39.5929   17.8219   13.5058 O   0  5  0  0  0  0
   41.6218   16.4964   13.3763 C   0  0  0  0  0  0
   41.2854   16.1009   14.6724 O   0  0  0  0  0  0
   42.0239   15.0810   15.1399 C   0  0  0  0  0  0
   41.7016   13.7217   14.9580 C   0  0  0  0  0  0
   40.4548   13.2417   13.6268 Br  0  0  0  0  0  0
   42.3207   12.8572   15.8236 C   0  0  0  0  0  0
   42.0813   11.4383   16.0951 C   0  0  0  0  0  0
   43.1208   10.5913   16.5330 C   0  0  0  0  0  0
   42.8741    9.2290   16.7850 C   0  0  0  0  0  0
   41.5998    8.6823   16.5435 C   0  0  0  0  0  0
   40.5486    9.5007   16.0642 C   0  0  0  0  0  0
   39.2170    8.9506   15.8281 N   0  0  0  0  0  0
   38.9544    7.5379   16.0866 C   0  0  0  0  0  0
   37.4605    7.2433   15.8436 C   0  0  0  0  0  0
   36.9528    7.7079   14.4649 C   0  0  0  0  0  0
   37.1910    6.7417   13.2852 C   0  0  0  0  0  0
   38.5170    5.9522   13.2600 C   0  0  0  0  0  0
   39.7701    6.7029   13.7503 C   0  0  0  0  0  0
   39.9480    6.6799   15.2818 C   0  0  0  0  0  0
   40.7967   10.8790   15.9080 C   0  0  0  0  0  0
   43.5649   13.7214   16.6887 S   0  0  0  0  0  0
   43.1192   15.2335   15.9330 C   0  0  0  0  0  0
   43.8952   16.4233   16.2767 C   0  0  0  0  0  0
   43.8127   17.4358   15.5434 O   0  0  0  0  0  0
   44.6139   16.4099   17.2965 O   0  5  0  0  0  0
   42.5830   17.0098   13.4003 H   0  0  0  0  0  0
   41.6981   15.6118   12.7440 H   0  0  0  0  0  0
   44.1151   10.9857   16.6844 H   0  0  0  0  0  0
   43.6639    8.5997   17.1678 H   0  0  0  0  0  0
   41.4332    7.6315   16.7314 H   0  0  0  0  0  0
   38.4592    9.5621   15.4777 H   0  0  0  0  0  0
   39.1679    7.3971   17.1477 H   0  0  0  0  0  0
   37.2426    6.1852   15.9995 H   0  0  0  0  0  0
   36.8916    7.7750   16.6085 H   0  0  0  0  0  0
   35.8805    7.9025   14.5274 H   0  0  0  0  0  0
   37.3979    8.6769   14.2314 H   0  0  0  0  0  0
   36.3720    6.0210   13.2465 H   0  0  0  0  0  0
   37.1022    7.3148   12.3604 H   0  0  0  0  0  0
   38.4013    5.0367   13.8433 H   0  0  0  0  0  0
   38.6841    5.6106   12.2368 H   0  0  0  0  0  0
   40.6450    6.2209   13.3101 H   0  0  0  0  0  0
   39.7796    7.7271   13.3732 H   0  0  0  0  0  0
   40.9578    7.0195   15.5191 H   0  0  0  0  0  0
   39.9030    5.6483   15.6356 H   0  0  0  0  0  0
   39.9967   11.5438   15.6314 H   0  0  0  0  0  0
  1  2  2  0  0  0
  2  3  1  0  0  0
  2  4  1  0  0  0
  4  5  1  0  0  0
  4 29  1  0  0  0
  4 30  1  0  0  0
  5  6  1  0  0  0
  6 25  2  0  0  0
  6  7  1  0  0  0
  7  8  1  0  0  0
  7  9  2  0  0  0
  9 10  1  0  0  0
  9 24  1  0  0  0
 10 23  1  0  0  0
 10 11  2  0  0  0
 11 12  1  0  0  0
 11 31  1  0  0  0
 12 13  2  0  0  0
 12 32  1  0  0  0
 13 14  1  0  0  0
 13 33  1  0  0  0
 14 15  1  0  0  0
 14 23  2  0  0  0
 15 16  1  0  0  0
 15 34  1  0  0  0
 16 22  1  0  0  0
 16 17  1  0  0  0
 16 35  1  0  0  0
 17 18  1  0  0  0
 17 36  1  0  0  0
 17 37  1  0  0  0
 18 19  1  0  0  0
 18 38  1  0  0  0
 18 39  1  0  0  0
 19 20  1  0  0  0
 19 40  1  0  0  0
 19 41  1  0  0  0
 20 21  1  0  0  0
 20 42  1  0  0  0
 20 43  1  0  0  0
 21 22  1  0  0  0
 21 44  1  0  0  0
 21 45  1  0  0  0
 22 46  1  0  0  0
 22 47  1  0  0  0
 23 48  1  0  0  0
 24 25  1  0  0  0
 25 26  1  0  0  0
 26 27  2  0  0  0
 26 28  1  0  0  0
M  CHG  2   3  -1  28  -1
M  END
> <i_m_stars>
2

> <s_m_entry_id>
550

> <s_m_entry_name>
PTP1B_23476.1

> <r_user_dG.exp>
-9.4138211030936

> <r_m_Molecular_weight>
466.3591

> <s_m_Source_Path>
C:\Users\yujiethinkpad\Desktop\05A\PTP1B

> <s_m_Source_File>
PTP1B_23476.sdf

> <i_m_Source_File_Index>
1

> <s_m_job_name>
align_ligands_7737

> <i_phase_Input_Structure_Number>
5

> <i_phase_Structure_Number>
5

> <r_phase_Similarity_to_Reference>
0.923168435453597

> <i_phase_Reference_Structure>
1

> <s_phase_Alignment_Method>
snapped core

> <s_phase_Alignment_Reason>


> <s_phase_Core_SMARTS>
a1aaaa1-a2aaaaa2

> <s_f3d_frozen_atoms>
24 25 6 7 9 10 23 14 13 12 11 8 48 33 32 31

> <s_m_subgroup_title>
align_ligands_7737

> <s_m_subgroupid>
align_ligands_7737

> <b_m_subgroup_collapsed>
0

$$$$
