23485
                    3D
 Schrodinger Suite 2021-2.
 63 66  0  0  1  0            999 V2000
   40.6043   13.3122   14.0209 C   0  0  0  0  0  0
   41.7016   13.7217   14.9580 C   0  0  0  0  0  0
   42.0239   15.0810   15.1399 C   0  0  0  0  0  0
   41.2854   16.1009   14.6724 O   0  0  0  0  0  0
   41.6218   16.4964   13.3763 C   0  0  0  0  0  0
   40.5625   17.4304   12.8151 C   0  0  0  0  0  0
   40.7908   17.7648   11.6356 O   0  0  0  0  0  0
   39.5929   17.8219   13.5058 O   0  5  0  0  0  0
   43.1192   15.2335   15.9330 C   0  0  0  0  0  0
   43.8952   16.4233   16.2767 C   0  0  0  0  0  0
   43.8127   17.4358   15.5434 O   0  0  0  0  0  0
   44.6139   16.4099   17.2965 O   0  5  0  0  0  0
   43.5649   13.7214   16.6887 S   0  0  0  0  0  0
   42.3207   12.8572   15.8236 C   0  0  0  0  0  0
   42.0813   11.4383   16.0951 C   0  0  0  0  0  0
   43.1208   10.5913   16.5330 C   0  0  0  0  0  0
   42.8741    9.2290   16.7850 C   0  0  0  0  0  0
   41.5998    8.6823   16.5435 C   0  0  0  0  0  0
   40.5486    9.5007   16.0642 C   0  0  0  0  0  0
   39.2812    9.0104   15.6810 N   0  0  0  0  0  0
   38.9544    7.5842   15.6826 C   0  0  0  0  0  0
   37.4305    7.2916   15.6430 C   0  0  0  0  0  0
   36.8484    6.9377   14.2589 C   0  0  0  0  0  0
   37.6865    5.8752   13.5318 N   0  0  1  0  0  0
   36.9724    5.5104   11.9876 S   0  0  0  0  0  0
   38.0112    5.6827   10.9661 O   0  0  0  0  0  0
   35.6918    6.2218   11.9113 O   0  0  0  0  0  0
   36.6160    3.7704   12.1055 C   0  0  0  0  0  0
   37.0456    3.2620   13.4497 C   0  0  0  0  0  0
   38.1164    3.8556   14.1074 C   0  0  0  0  0  0
   38.5145    3.3845   15.3529 C   0  0  0  0  0  0
   37.8417    2.3198   15.9407 C   0  0  0  0  0  0
   36.7710    1.7261   15.2829 C   0  0  0  0  0  0
   36.3729    2.1972   14.0374 C   0  0  0  0  0  0
   39.1013    6.4230   13.3326 C   0  0  0  0  0  0
   39.7722    6.7181   14.6830 C   0  0  0  0  0  0
   40.7967   10.8790   15.9080 C   0  0  0  0  0  0
   40.2802   14.1765   13.4412 H   0  0  0  0  0  0
   40.9724   12.5394   13.3460 H   0  0  0  0  0  0
   39.7630   12.9232   14.5944 H   0  0  0  0  0  0
   42.5801   17.0156   13.3921 H   0  0  0  0  0  0
   41.6952   15.6175   12.7358 H   0  0  0  0  0  0
   44.1151   10.9857   16.6828 H   0  0  0  0  0  0
   43.6643    8.5989   17.1657 H   0  0  0  0  0  0
   41.4346    7.6309   16.7297 H   0  0  0  0  0  0
   38.6090    9.6837   15.3421 H   0  0  0  0  0  0
   39.1740    7.2231   16.6872 H   0  0  0  0  0  0
   37.1877    6.4768   16.3252 H   0  0  0  0  0  0
   36.8874    8.1626   16.0098 H   0  0  0  0  0  0
   35.8328    6.5517   14.3473 H   0  0  0  0  0  0
   36.7737    7.8314   13.6394 H   0  0  0  0  0  0
   35.5451    3.6096   11.9815 H   0  0  0  0  0  0
   37.1565    3.2351   11.3248 H   0  0  0  0  0  0
   38.6402    4.6845   13.6499 H   0  0  0  0  0  0
   39.3481    3.8467   15.8650 H   0  0  0  0  0  0
   38.1517    1.9530   16.9103 H   0  0  0  0  0  0
   36.2472    0.8972   15.7405 H   0  0  0  0  0  0
   35.5393    1.7350   13.5253 H   0  0  0  0  0  0
   39.6618    5.6865   12.7570 H   0  0  0  0  0  0
   39.0633    7.3185   12.7124 H   0  0  0  0  0  0
   40.7191    7.2135   14.4689 H   0  0  0  0  0  0
   40.0294    5.7622   15.1392 H   0  0  0  0  0  0
   40.0000   11.5458   15.6304 H   0  0  0  0  0  0
  1  2  1  0  0  0
  1 38  1  0  0  0
  1 39  1  0  0  0
  1 40  1  0  0  0
  2 14  2  0  0  0
  2  3  1  0  0  0
  3  4  1  0  0  0
  3  9  2  0  0  0
  4  5  1  0  0  0
  5  6  1  0  0  0
  5 41  1  0  0  0
  5 42  1  0  0  0
  6  7  2  0  0  0
  6  8  1  0  0  0
  9 10  1  0  0  0
  9 13  1  0  0  0
 10 11  2  0  0  0
 10 12  1  0  0  0
 13 14  1  0  0  0
 14 15  1  0  0  0
 15 37  1  0  0  0
 15 16  2  0  0  0
 16 17  1  0  0  0
 16 43  1  0  0  0
 17 18  2  0  0  0
 17 44  1  0  0  0
 18 19  1  0  0  0
 18 45  1  0  0  0
 19 20  1  0  0  0
 19 37  2  0  0  0
 20 21  1  0  0  0
 20 46  1  0  0  0
 21 36  1  0  0  0
 21 22  1  0  0  0
 21 47  1  0  0  0
 22 23  1  0  0  0
 22 48  1  0  0  0
 22 49  1  0  0  0
 23 24  1  0  0  0
 23 50  1  0  0  0
 23 51  1  0  0  0
 24 25  1  0  0  0
 24 35  1  0  0  0
 25 26  2  0  0  0
 25 27  2  0  0  0
 25 28  1  0  0  0
 28 29  1  0  0  0
 28 52  1  0  0  0
 28 53  1  0  0  0
 29 34  1  0  0  0
 29 30  2  0  0  0
 30 31  1  0  0  0
 30 54  1  0  0  0
 31 32  2  0  0  0
 31 55  1  0  0  0
 32 33  1  0  0  0
 32 56  1  0  0  0
 33 34  2  0  0  0
 33 57  1  0  0  0
 34 58  1  0  0  0
 35 36  1  0  0  0
 35 59  1  0  0  0
 35 60  1  0  0  0
 36 61  1  0  0  0
 36 62  1  0  0  0
 37 63  1  0  0  0
M  CHG  2   8  -1  12  -1
M  END
> <i_m_stars>
2

> <s_m_entry_id>
557

> <s_m_entry_name>
PTP1B_23485.1

> <r_user_dG.exp>
-11.0135614094467

> <r_m_Molecular_weight>
542.63432

> <s_m_Source_Path>
C:\Users\yujiethinkpad\Desktop\05A\PTP1B

> <s_m_Source_File>
PTP1B_23485.sdf

> <i_m_Source_File_Index>
1

> <s_m_job_name>
align_ligands_7737

> <i_phase_Input_Structure_Number>
12

> <i_phase_Structure_Number>
12

> <r_phase_Similarity_to_Reference>
0.684298059488613

> <i_phase_Reference_Structure>
1

> <s_phase_Alignment_Method>
snapped core

> <s_phase_Alignment_Reason>


> <s_phase_Core_SMARTS>
a1aaaa1-a2aa(aaa2)AA3AAAAA3

> <s_f3d_frozen_atoms>
13 9 3 2 14 15 37 19 18 17 16 20 21 22 23 24 35 36 63 45 44 43 46 47 48 49 50 51 59 60 61 62

> <s_m_subgroup_title>
align_ligands_7737

> <s_m_subgroupid>
align_ligands_7737

> <b_m_subgroup_collapsed>
0

$$$$
