23484
                    3D
 Schrodinger Suite 2021-2.
 60 63  0  0  1  0            999 V2000
   40.7908   17.7648   11.6356 O   0  0  0  0  0  0
   40.5625   17.4304   12.8151 C   0  0  0  0  0  0
   39.5929   17.8219   13.5058 O   0  5  0  0  0  0
   41.6218   16.4964   13.3763 C   0  0  0  0  0  0
   41.2854   16.1009   14.6724 O   0  0  0  0  0  0
   42.0239   15.0810   15.1399 C   0  0  0  0  0  0
   41.7016   13.7217   14.9580 C   0  0  0  0  0  0
   42.3207   12.8572   15.8236 C   0  0  0  0  0  0
   42.0813   11.4383   16.0951 C   0  0  0  0  0  0
   43.1208   10.5913   16.5330 C   0  0  0  0  0  0
   42.8741    9.2290   16.7850 C   0  0  0  0  0  0
   41.5998    8.6823   16.5435 C   0  0  0  0  0  0
   40.5486    9.5007   16.0642 C   0  0  0  0  0  0
   39.2812    9.0104   15.6810 N   0  0  0  0  0  0
   38.9544    7.5842   15.6826 C   0  0  0  0  0  0
   37.4305    7.2916   15.6430 C   0  0  0  0  0  0
   36.8484    6.9377   14.2589 C   0  0  0  0  0  0
   37.6865    5.8752   13.5318 N   0  0  1  0  0  0
   36.9726    5.5114   11.9872 S   0  0  0  0  0  0
   37.7185    4.3896   11.4064 O   0  0  0  0  0  0
   36.8025    6.7782   11.2672 O   0  0  0  0  0  0
   35.3520    4.9151   12.4188 C   0  0  0  0  0  0
   35.4816    3.7020   13.2915 C   0  0  0  0  0  0
   36.5808    3.5639   14.1307 C   0  0  0  0  0  0
   36.7009    2.4399   14.9393 C   0  0  0  0  0  0
   35.7217    1.4540   14.9087 C   0  0  0  0  0  0
   34.6225    1.5922   14.0696 C   0  0  0  0  0  0
   34.5024    2.7162   13.2610 C   0  0  0  0  0  0
   39.1013    6.4230   13.3326 C   0  0  0  0  0  0
   39.7722    6.7181   14.6830 C   0  0  0  0  0  0
   40.7967   10.8790   15.9080 C   0  0  0  0  0  0
   43.5649   13.7214   16.6887 S   0  0  0  0  0  0
   43.1192   15.2335   15.9330 C   0  0  0  0  0  0
   43.8952   16.4233   16.2767 C   0  0  0  0  0  0
   43.8127   17.4358   15.5434 O   0  0  0  0  0  0
   44.6139   16.4099   17.2965 O   0  5  0  0  0  0
   42.5830   17.0098   13.4003 H   0  0  0  0  0  0
   41.6981   15.6118   12.7440 H   0  0  0  0  0  0
   41.0158   13.4035   14.1867 H   0  0  0  0  0  0
   44.1153   10.9844   16.6869 H   0  0  0  0  0  0
   43.6639    8.5989   17.1665 H   0  0  0  0  0  0
   41.4361    7.6301   16.7263 H   0  0  0  0  0  0
   38.5914    9.6924   15.3999 H   0  0  0  0  0  0
   39.1740    7.2231   16.6872 H   0  0  0  0  0  0
   37.1877    6.4768   16.3252 H   0  0  0  0  0  0
   36.8874    8.1626   16.0098 H   0  0  0  0  0  0
   35.8328    6.5517   14.3473 H   0  0  0  0  0  0
   36.7737    7.8314   13.6394 H   0  0  0  0  0  0
   34.8098    5.6931   12.9563 H   0  0  0  0  0  0
   34.8075    4.6535   11.5115 H   0  0  0  0  0  0
   37.3432    4.3314   14.1544 H   0  0  0  0  0  0
   37.5568    2.3323   15.5926 H   0  0  0  0  0  0
   35.8152    0.5789   15.5383 H   0  0  0  0  0  0
   33.8601    0.8246   14.0458 H   0  0  0  0  0  0
   33.6466    2.8237   12.6077 H   0  0  0  0  0  0
   39.6618    5.6865   12.7570 H   0  0  0  0  0  0
   39.0633    7.3185   12.7124 H   0  0  0  0  0  0
   40.7191    7.2135   14.4689 H   0  0  0  0  0  0
   40.0294    5.7622   15.1392 H   0  0  0  0  0  0
   39.9930   11.5367   15.6285 H   0  0  0  0  0  0
  1  2  2  0  0  0
  2  3  1  0  0  0
  2  4  1  0  0  0
  4  5  1  0  0  0
  4 37  1  0  0  0
  4 38  1  0  0  0
  5  6  1  0  0  0
  6 33  2  0  0  0
  6  7  1  0  0  0
  7  8  2  0  0  0
  7 39  1  0  0  0
  8  9  1  0  0  0
  8 32  1  0  0  0
  9 31  1  0  0  0
  9 10  2  0  0  0
 10 11  1  0  0  0
 10 40  1  0  0  0
 11 12  2  0  0  0
 11 41  1  0  0  0
 12 13  1  0  0  0
 12 42  1  0  0  0
 13 14  1  0  0  0
 13 31  2  0  0  0
 14 15  1  0  0  0
 14 43  1  0  0  0
 15 30  1  0  0  0
 15 16  1  0  0  0
 15 44  1  0  0  0
 16 17  1  0  0  0
 16 45  1  0  0  0
 16 46  1  0  0  0
 17 18  1  0  0  0
 17 47  1  0  0  0
 17 48  1  0  0  0
 18 19  1  0  0  0
 18 29  1  0  0  0
 19 20  2  0  0  0
 19 21  2  0  0  0
 19 22  1  0  0  0
 22 23  1  0  0  0
 22 49  1  0  0  0
 22 50  1  0  0  0
 23 28  1  0  0  0
 23 24  2  0  0  0
 24 25  1  0  0  0
 24 51  1  0  0  0
 25 26  2  0  0  0
 25 52  1  0  0  0
 26 27  1  0  0  0
 26 53  1  0  0  0
 27 28  2  0  0  0
 27 54  1  0  0  0
 28 55  1  0  0  0
 29 30  1  0  0  0
 29 56  1  0  0  0
 29 57  1  0  0  0
 30 58  1  0  0  0
 30 59  1  0  0  0
 31 60  1  0  0  0
 32 33  1  0  0  0
 33 34  1  0  0  0
 34 35  2  0  0  0
 34 36  1  0  0  0
M  CHG  2   3  -1  36  -1
M  END
> <i_m_stars>
2

> <s_m_entry_id>
556

> <s_m_entry_name>
PTP1B_23484.1

> <r_user_dG.exp>
-7.75184064198728

> <r_m_Molecular_weight>
528.60723

> <s_m_Source_Path>
C:\Users\yujiethinkpad\Desktop\05A\PTP1B

> <s_m_Source_File>
PTP1B_23484.sdf

> <i_m_Source_File_Index>
1

> <s_m_job_name>
align_ligands_7737

> <i_phase_Input_Structure_Number>
11

> <i_phase_Structure_Number>
11

> <r_phase_Similarity_to_Reference>
0.705912951162057

> <i_phase_Reference_Structure>
1

> <s_phase_Alignment_Method>
snapped core

> <s_phase_Alignment_Reason>


> <s_phase_Core_SMARTS>
a1aaaa1-a2aa(aaa2)AA3AAAAA3

> <s_f3d_frozen_atoms>
32 33 6 7 8 9 31 13 12 11 10 14 15 16 17 18 29 30 39 60 42 41 40 43 44 45 46 47 48 56 57 58 59

> <s_m_subgroup_title>
align_ligands_7737

> <s_m_subgroupid>
align_ligands_7737

> <b_m_subgroup_collapsed>
0

$$$$
