@<TRIPOS>MOLECULE
1a
52   54    1
SMALL
USER_CHARGES


@<TRIPOS>ATOM
      1 N1         18.3477  -13.2695   21.7072 N.am      1 UNK         0.0000 
      2 C2         18.1765  -11.9782   21.0132 C.3       1 UNK         0.0000 
      3 C3         17.4561  -13.7932   22.5862 C.2       1 UNK         0.0000 
      4 O4         16.4566  -13.1696   22.9501 O.2       1 UNK         0.0000 
      5 C5         16.7891  -11.7919   20.3607 C.2       1 UNK         0.0000 
      6 O6         16.3129  -12.6820   19.6534 O.2       1 UNK         0.0000 
      7 C7         19.2877  -11.9490   19.9528 C.3       1 UNK         0.0000 
      8 C8         17.6818  -15.1940   23.1883 C.3       1 UNK         0.0000 
      9 N9         16.1564  -10.6408   20.6065 N.am      1 UNK         0.0000 
     10 C10        20.3708  -12.8696   20.4764 C.3       1 UNK         0.0000 
     11 N11        16.4280  -15.9626   23.1045 N.4       1 UNK         0.0000 
     12 C12        18.1548  -15.1270   24.6591 C.3       1 UNK         0.0000 
     13 C13        14.8280  -10.2760   20.1411 C.3       1 UNK         0.0000 
     14 C14        19.6283  -13.8844   21.3391 C.3       1 UNK         0.0000 
     15 C15        19.5750  -14.6212   24.8423 C.ar      1 UNK         0.0000 
     16 C16        13.7200  -10.6282   21.1183 C.ar      1 UNK         0.0000 
     17 C17        20.6767  -15.4490   24.5360 C.ar      1 UNK         0.0000 
     18 C18        13.2089  -11.9431   21.1732 C.ar      1 UNK         0.0000 
     19 C19        21.9890  -14.9496   24.6571 C.ar      1 UNK         0.0000 
     20 C20        12.1531  -12.2553   22.0546 C.ar      1 UNK         0.0000 
     21 C21        22.2038  -13.6243   25.0836 C.ar      1 UNK         0.0000 
     22 C22        11.6074  -11.2561   22.8870 C.ar      1 UNK         0.0000 
     23 C23        21.1084  -12.8096   25.4224 C.ar      1 UNK         0.0000 
     24 C24        12.1303   -9.9484   22.8494 C.ar      1 UNK         0.0000 
     25 C25        19.8037  -13.3135   25.3100 C.ar      1 UNK         0.0000 
     26 C26        13.1834   -9.6356   21.9677 C.ar      1 UNK         0.0000 
     27 H27        18.3473  -11.1866   21.7427 H         1 UNK         0.0000 
     28 H28        18.9283  -12.3278   18.9940 H         1 UNK         0.0000 
     29 H29        19.6663  -10.9449   19.7868 H         1 UNK         0.0000 
     30 H30        18.4070  -15.7607   22.6062 H         1 UNK         0.0000 
     31 H31        16.6541   -9.9374   21.1520 H         1 UNK         0.0000 
     32 H32        20.9506  -13.3366   19.6790 H         1 UNK         0.0000 
     33 H33        21.0642  -12.3021   21.0991 H         1 UNK         0.0000 
     34 H34        16.5546  -16.8799   23.5049 H         1 UNK         0.0000 
     35 H35        15.7068  -15.4618   23.6107 H         1 UNK         0.0000 
     36 H36        16.1495  -16.0443   22.1377 H         1 UNK         0.0000 
     37 H37        17.4693  -14.5110   25.2456 H         1 UNK         0.0000 
     38 H38        18.1057  -16.1206   25.1069 H         1 UNK         0.0000 
     39 H39        14.8206   -9.1968   19.9898 H         1 UNK         0.0000 
     40 H40        14.6149  -10.7331   19.1722 H         1 UNK         0.0000 
     41 H41        20.2303  -14.1483   22.2066 H         1 UNK         0.0000 
     42 H42        19.4426  -14.7918   20.7627 H         1 UNK         0.0000 
     43 H43        20.5231  -16.4639   24.1961 H         1 UNK         0.0000 
     44 H44        13.6273  -12.7128   20.5372 H         1 UNK         0.0000 
     45 H45        22.8339  -15.5815   24.4209 H         1 UNK         0.0000 
     46 H46        11.7602  -13.2621   22.0956 H         1 UNK         0.0000 
     47 H47        23.2093  -13.2396   25.1644 H         1 UNK         0.0000 
     48 H48        21.2545  -11.7997   25.7767 H         1 UNK         0.0000 
     49 F49        11.6288   -8.9896   23.6636 F         1 UNK         0.0000 
     50 H50        18.9815  -12.6889   25.6020 H         1 UNK         0.0000 
     51 H51        13.5784   -8.6306   21.9529 H         1 UNK         0.0000 
     52 H52        10.7939  -11.4932   23.5600 H         1 UNK         0.0000 
@<TRIPOS>BOND
     1    1    2 1    
     2    1   14 1    
     3    1    3 am   BACKBONE|DICT|INTERRES
     4    2    5 1    
     5    2    7 1    
     6    2   27 1    
     7    3    8 1    
     8    3    4 2    
     9    5    6 2    
    10    5    9 am   BACKBONE|DICT|INTERRES
    11    7   10 1    
    12    7   28 1    
    13    7   29 1    
    14    8   11 1    
    15    8   12 1    
    16    8   30 1    
    17    9   13 1    
    18    9   31 1    
    19   10   14 1    
    20   10   32 1    
    21   10   33 1    
    22   11   34 1    
    23   11   35 1    
    24   11   36 1    
    25   12   15 1    
    26   12   37 1    
    27   12   38 1    
    28   13   16 1    
    29   13   39 1    
    30   13   40 1    
    31   14   41 1    
    32   14   42 1    
    33   15   17 ar   
    34   15   25 ar   
    35   16   18 ar   
    36   16   26 ar   
    37   17   19 ar   
    38   17   43 1    
    39   18   20 ar   
    40   18   44 1    
    41   19   21 ar   
    42   19   45 1    
    43   20   22 ar   
    44   20   46 1    
    45   21   23 ar   
    46   21   47 1    
    47   22   24 ar   
    48   22   52 1    
    49   23   25 ar   
    50   23   48 1    
    51   24   26 ar   
    52   24   49 1    
    53   25   50 1    
    54   26   51 1    
@<TRIPOS>SUBSTRUCTURE
     1 UNK         1 GROUP             0       ****    0 ROOT    
