@<TRIPOS>MOLECULE
6a
52   54    1
SMALL
USER_CHARGES


@<TRIPOS>ATOM
      1 N1         18.2157  -13.2003   21.6863 N.am      1 UNK         0.0000 
      2 C2         18.0087  -11.9014   21.0167 C.3       1 UNK         0.0000 
      3 C3         17.3504  -13.7474   22.5740 C.2       1 UNK         0.0000 
      4 O4         16.3550  -13.1366   22.9677 O.2       1 UNK         0.0000 
      5 C5         16.6062  -11.7346   20.3818 C.2       1 UNK         0.0000 
      6 O6         16.1572  -12.6195   19.6529 O.2       1 UNK         0.0000 
      7 C7         19.1142  -11.8355   19.9533 C.3       1 UNK         0.0000 
      8 C8         17.6071  -15.1533   23.1501 C.3       1 UNK         0.0000 
      9 N9         15.9284  -10.6140   20.6664 N.am      1 UNK         0.0000 
     10 C10        20.2121  -12.7673   20.4270 C.3       1 UNK         0.0000 
     11 N11        16.3676  -15.9435   23.0624 N.4       1 UNK         0.0000 
     12 C12        18.0947  -15.1005   24.6172 C.3       1 UNK         0.0000 
     13 C13        14.5615  -10.3074   20.2469 C.3       1 UNK         0.0000 
     14 C14        19.4961  -13.7972   21.2906 C.3       1 UNK         0.0000 
     15 C15        19.5224  -14.6112   24.7960 C.ar      1 UNK         0.0000 
     16 C16        13.5216  -10.3907   21.3623 C.ar      1 UNK         0.0000 
     17 C17        19.7728  -13.3212   25.2992 C.ar      1 UNK         0.0000 
     18 C18        12.7061  -11.5351   21.5535 C.ar      1 UNK         0.0000 
     19 C19        21.0848  -12.8362   25.4155 C.ar      1 UNK         0.0000 
     20 C20        11.7284  -11.5437   22.5691 C.ar      1 UNK         0.0000 
     21 C21        22.1672  -13.6542   25.0464 C.ar      1 UNK         0.0000 
     22 C22        11.5492  -10.4209   23.3986 C.ar      1 UNK         0.0000 
     23 C23        21.9309  -14.9609   24.5786 C.ar      1 UNK         0.0000 
     24 C24        12.3658   -9.2886   23.2270 C.ar      1 UNK         0.0000 
     25 C25        20.6114  -15.4396   24.4521 C.ar      1 UNK         0.0000 
     26 C26        13.3428   -9.2754   22.2113 C.ar      1 UNK         0.0000 
     27 H27        18.1730  -11.1184   21.7562 H         1 UNK         0.0000 
     28 H28        18.7508  -12.1659   18.9784 H         1 UNK         0.0000 
     29 H29        19.4937  -10.8268   19.8451 H         1 UNK         0.0000 
     30 H30        18.3351  -15.7000   22.5532 H         1 UNK         0.0000 
     31 H31        16.4243   -9.9023   21.2009 H         1 UNK         0.0000 
     32 H32        20.7720  -13.2186   19.6062 H         1 UNK         0.0000 
     33 H33        20.9234  -12.2129   21.0409 H         1 UNK         0.0000 
     34 H34        16.5136  -16.8648   23.4463 H         1 UNK         0.0000 
     35 H35        15.6419  -15.4639   23.5823 H         1 UNK         0.0000 
     36 H36        16.0827  -16.0137   22.0966 H         1 UNK         0.0000 
     37 H37        17.4195  -14.4847   25.2152 H         1 UNK         0.0000 
     38 H38        18.0410  -16.0970   25.0572 H         1 UNK         0.0000 
     39 H39        14.5615   -9.2765   19.8995 H         1 UNK         0.0000 
     40 H40        14.2593  -10.9054   19.3856 H         1 UNK         0.0000 
     41 H41        20.1147  -14.0626   22.1463 H         1 UNK         0.0000 
     42 H42        19.3114  -14.7010   20.7086 H         1 UNK         0.0000 
     43 H43        18.9623  -12.6976   25.6212 H         1 UNK         0.0000 
     44 Cl44       12.8565  -12.9335   20.5533 Cl        1 UNK         0.0000 
     45 H45        21.2481  -11.8420   25.8042 H         1 UNK         0.0000 
     46 H46        11.1072  -12.4173   22.7110 H         1 UNK         0.0000 
     47 H47        23.1789  -13.2889   25.1412 H         1 UNK         0.0000 
     48 H48        22.7647  -15.5963   24.3164 H         1 UNK         0.0000 
     49 Cl49       12.1952   -7.9330   24.2824 Cl        1 UNK         0.0000 
     50 H50        20.4423  -16.4395   24.0787 H         1 UNK         0.0000 
     51 H51        13.9669   -8.4033   22.0925 H         1 UNK         0.0000 
     52 H52        10.7951  -10.4367   24.1734 H         1 UNK         0.0000 
@<TRIPOS>BOND
     1    1    2 1    
     2    1   14 1    
     3    1    3 am   BACKBONE|DICT|INTERRES
     4    2    5 1    
     5    2    7 1    
     6    2   27 1    
     7    3    8 1    
     8    3    4 2    
     9    5    6 2    
    10    5    9 am   BACKBONE|DICT|INTERRES
    11    7   10 1    
    12    7   28 1    
    13    7   29 1    
    14    8   11 1    
    15    8   12 1    
    16    8   30 1    
    17    9   13 1    
    18    9   31 1    
    19   10   14 1    
    20   10   32 1    
    21   10   33 1    
    22   11   34 1    
    23   11   35 1    
    24   11   36 1    
    25   12   15 1    
    26   12   37 1    
    27   12   38 1    
    28   13   16 1    
    29   13   39 1    
    30   13   40 1    
    31   14   41 1    
    32   14   42 1    
    33   15   17 ar   
    34   15   25 ar   
    35   16   18 ar   
    36   16   26 ar   
    37   17   19 ar   
    38   17   43 1    
    39   18   20 ar   
    40   18   44 1    
    41   19   21 ar   
    42   19   45 1    
    43   20   22 ar   
    44   20   46 1    
    45   21   23 ar   
    46   21   47 1    
    47   22   24 ar   
    48   22   52 1    
    49   23   25 ar   
    50   23   48 1    
    51   24   26 ar   
    52   24   49 1    
    53   25   50 1    
    54   26   51 1    
@<TRIPOS>SUBSTRUCTURE
     1 UNK         1 GROUP             0       ****    0 ROOT    
