@<TRIPOS>MOLECULE
6e
52   54    1
SMALL
USER_CHARGES


@<TRIPOS>ATOM
      1 N1         18.2497  -13.2104   21.6962 N.am      1 UNK         0.0000 
      2 C2         18.0488  -11.9126   21.0217 C.3       1 UNK         0.0000 
      3 C3         17.3792  -13.7553   22.5811 C.2       1 UNK         0.0000 
      4 O4         16.3817  -13.1440   22.9691 O.2       1 UNK         0.0000 
      5 C5         16.6479  -11.7402   20.3852 C.2       1 UNK         0.0000 
      6 O6         16.1896  -12.6294   19.6672 O.2       1 UNK         0.0000 
      7 C7         19.1544  -11.8553   19.9573 C.3       1 UNK         0.0000 
      8 C8         17.6313  -15.1609   23.1609 C.3       1 UNK         0.0000 
      9 N9         15.9835  -10.6080   20.6535 N.am      1 UNK         0.0000 
     10 C10        20.2512  -12.7816   20.4429 C.3       1 UNK         0.0000 
     11 N11        16.3889  -15.9469   23.0741 N.4       1 UNK         0.0000 
     12 C12        18.1164  -15.1072   24.6285 C.3       1 UNK         0.0000 
     13 C13        14.6257  -10.2861   20.2180 C.3       1 UNK         0.0000 
     14 C14        19.5309  -13.8096   21.3059 C.3       1 UNK         0.0000 
     15 C15        19.5409  -14.6106   24.8076 C.ar      1 UNK         0.0000 
     16 C16        13.5701  -10.3803   21.3113 C.ar      1 UNK         0.0000 
     17 C17        20.6348  -15.4379   24.4770 C.ar      1 UNK         0.0000 
     18 C18        12.7537  -11.5266   21.4406 C.ar      1 UNK         0.0000 
     19 C19        21.9515  -14.9527   24.6066 C.ar      1 UNK         0.0000 
     20 C20        11.7654  -11.5815   22.4439 C.ar      1 UNK         0.0000 
     21 C21        22.1796  -13.6411   25.0642 C.ar      1 UNK         0.0000 
     22 C22        11.5676  -10.4862   23.3077 C.ar      1 UNK         0.0000 
     23 C23        21.0922  -12.8253   25.4224 C.ar      1 UNK         0.0000 
     24 C24        12.3755   -9.3399   23.1820 C.ar      1 UNK         0.0000 
     25 C25        19.7830  -13.3164   25.3030 C.ar      1 UNK         0.0000 
     26 C26        13.3727   -9.2906   22.1874 C.ar      1 UNK         0.0000 
     27 H27        18.2159  -11.1277   21.7585 H         1 UNK         0.0000 
     28 H28        18.7909  -12.1998   18.9874 H         1 UNK         0.0000 
     29 H29        19.5318  -10.8473   19.8328 H         1 UNK         0.0000 
     30 H30        18.3588  -15.7104   22.5659 H         1 UNK         0.0000 
     31 H31        16.4831   -9.8962   21.1854 H         1 UNK         0.0000 
     32 H32        20.8176  -13.2352   19.6279 H         1 UNK         0.0000 
     33 H33        20.9566  -12.2225   21.0594 H         1 UNK         0.0000 
     34 H34        16.5312  -16.8677   23.4605 H         1 UNK         0.0000 
     35 H35        15.6642  -15.4635   23.5916 H         1 UNK         0.0000 
     36 H36        16.1051  -16.0186   22.1081 H         1 UNK         0.0000 
     37 H37        17.4379  -14.4943   25.2258 H         1 UNK         0.0000 
     38 H38        18.0667  -16.1041   25.0680 H         1 UNK         0.0000 
     39 H39        14.6345   -9.2506   19.8866 H         1 UNK         0.0000 
     40 H40        14.3280  -10.8826   19.3533 H         1 UNK         0.0000 
     41 H41        20.1464  -14.0746   22.1639 H         1 UNK         0.0000 
     42 H42        19.3469  -14.7139   20.7244 H         1 UNK         0.0000 
     43 H43        20.4719  -16.4432   24.1160 H         1 UNK         0.0000 
     44 F44        12.8930  -12.5678   20.5872 F         1 UNK         0.0000 
     45 H45        22.7897  -15.5863   24.3539 H         1 UNK         0.0000 
     46 H46        11.1484  -12.4637   22.5428 H         1 UNK         0.0000 
     47 H47        23.1887  -13.2680   25.1534 H         1 UNK         0.0000 
     48 H48        21.2485  -11.8254   25.7984 H         1 UNK         0.0000 
     49 Cl49       12.1698   -8.0089   24.2632 Cl        1 UNK         0.0000 
     50 H50        18.9680  -12.6934   25.6145 H         1 UNK         0.0000 
     51 H51        13.9932   -8.4120   22.1036 H         1 UNK         0.0000 
     52 H52        10.8009  -10.5310   24.0689 H         1 UNK         0.0000 
@<TRIPOS>BOND
     1    1    2 1    
     2    1   14 1    
     3    1    3 am   BACKBONE|DICT|INTERRES
     4    2    5 1    
     5    2    7 1    
     6    2   27 1    
     7    3    8 1    
     8    3    4 2    
     9    5    6 2    
    10    5    9 am   BACKBONE|DICT|INTERRES
    11    7   10 1    
    12    7   28 1    
    13    7   29 1    
    14    8   11 1    
    15    8   12 1    
    16    8   30 1    
    17    9   13 1    
    18    9   31 1    
    19   10   14 1    
    20   10   32 1    
    21   10   33 1    
    22   11   34 1    
    23   11   35 1    
    24   11   36 1    
    25   12   15 1    
    26   12   37 1    
    27   12   38 1    
    28   13   16 1    
    29   13   39 1    
    30   13   40 1    
    31   14   41 1    
    32   14   42 1    
    33   15   17 ar   
    34   15   25 ar   
    35   16   18 ar   
    36   16   26 ar   
    37   17   19 ar   
    38   17   43 1    
    39   18   20 ar   
    40   18   44 1    
    41   19   21 ar   
    42   19   45 1    
    43   20   22 ar   
    44   20   46 1    
    45   21   23 ar   
    46   21   47 1    
    47   22   24 ar   
    48   22   52 1    
    49   23   25 ar   
    50   23   48 1    
    51   24   26 ar   
    52   24   49 1    
    53   25   50 1    
    54   26   51 1    
@<TRIPOS>SUBSTRUCTURE
     1 UNK         1 GROUP             0       ****    0 ROOT    
