@<TRIPOS>MOLECULE
3b
58   60    1
SMALL
USER_CHARGES


@<TRIPOS>ATOM
      1 N1         18.2837  -13.2167   21.6711 N.am      1 UNK         0.0000 
      2 C2         18.1069  -11.9189   20.9899 C.3       1 UNK         0.0000 
      3 C3         17.4006  -13.7476   22.5524 C.2       1 UNK         0.0000 
      4 O4         16.4058  -13.1272   22.9305 O.2       1 UNK         0.0000 
      5 C5         16.7158  -11.7247   20.3399 C.2       1 UNK         0.0000 
      6 O6         16.2540  -12.5979   19.6030 O.2       1 UNK         0.0000 
      7 C7         19.2212  -11.8811   19.9329 C.3       1 UNK         0.0000 
      8 C8         17.6347  -15.1514   23.1434 C.3       1 UNK         0.0000 
      9 N9         16.0668  -10.5871   20.6174 N.am      1 UNK         0.0000 
     10 C10        20.3031  -12.8141   20.4369 C.3       1 UNK         0.0000 
     11 N11        16.3852  -15.9256   23.0521 N.4       1 UNK         0.0000 
     12 C12        18.1081  -15.0916   24.6149 C.3       1 UNK         0.0000 
     13 C13        14.7238  -10.2228   20.1805 C.3       1 UNK         0.0000 
     14 C14        19.5622  -13.8312   21.2959 C.3       1 UNK         0.0000 
     15 C15        19.5374  -14.6118   24.8032 C.ar      1 UNK         0.0000 
     16 C16        13.6222  -10.7255   21.0990 C.ar      1 UNK         0.0000 
     17 C17        19.7921  -13.3153   25.2875 C.ar      1 UNK         0.0000 
     18 C18        13.0747   -9.8945   22.1043 C.ar      1 UNK         0.0000 
     19 C19        21.1061  -12.8369   25.4050 C.ar      1 UNK         0.0000 
     20 C20        12.0629  -10.3884   22.9643 C.ar      1 UNK         0.0000 
     21 C21        22.1857  -13.6674   25.0566 C.ar      1 UNK         0.0000 
     22 C22        11.5859  -11.7025   22.7805 C.ar      1 UNK         0.0000 
     23 C23        21.9450  -14.9812   24.6113 C.ar      1 UNK         0.0000 
     24 C24        12.1277  -12.5291   21.7812 C.ar      1 UNK         0.0000 
     25 C25        20.6234  -15.4537   24.4832 C.ar      1 UNK         0.0000 
     26 C26        13.1479  -12.0435   20.9456 C.ar      1 UNK         0.0000 
     27 H27        18.2787  -11.1344   21.7266 H         1 UNK         0.0000 
     28 H28        18.8614  -12.2338   18.9646 H         1 UNK         0.0000 
     29 H29        19.6100  -10.8785   19.7968 H         1 UNK         0.0000 
     30 H30        18.3615  -15.7122   22.5580 H         1 UNK         0.0000 
     31 H31        16.5622   -9.8958   21.1794 H         1 UNK         0.0000 
     32 H32        20.8744  -13.2769   19.6309 H         1 UNK         0.0000 
     33 H33        21.0054  -12.2575   21.0592 H         1 UNK         0.0000 
     34 H34        16.5154  -16.8455   23.4447 H         1 UNK         0.0000 
     35 H35        15.6617  -15.4323   23.5622 H         1 UNK         0.0000 
     36 H36        16.1072  -15.9998   22.0847 H         1 UNK         0.0000 
     37 H37        17.4321  -14.4653   25.2010 H         1 UNK         0.0000 
     38 H38        18.0416  -16.0842   25.0622 H         1 UNK         0.0000 
     39 H39        14.6655   -9.1359   20.1194 H         1 UNK         0.0000 
     40 H40        14.5403  -10.6032   19.1745 H         1 UNK         0.0000 
     41 H41        20.1661  -14.0999   22.1609 H         1 UNK         0.0000 
     42 H42        19.3741  -14.7354   20.7158 H         1 UNK         0.0000 
     43 H43        18.9835  -12.6802   25.5913 H         1 UNK         0.0000 
     44 H44        13.4616   -8.8945   22.2257 H         1 UNK         0.0000 
     45 H45        21.2725  -11.8372   25.7775 H         1 UNK         0.0000 
     46 H46        23.1985  -13.3054   25.1500 H         1 UNK         0.0000 
     47 H47        22.7770  -15.6258   24.3660 H         1 UNK         0.0000 
     48 H48        11.7679  -13.5422   21.6724 H         1 UNK         0.0000 
     49 H49        20.4505  -16.4585   24.1250 H         1 UNK         0.0000 
     50 H50        13.5747  -12.6868   20.1893 H         1 UNK         0.0000 
     51 H51        10.8150  -12.0976   23.4283 H         1 UNK         0.0000 
     52 C52        11.5078   -9.6034   24.1479 C.3       1 UNK         0.0000 
     53 H53        11.6961  -10.2111   25.0299 H         1 UNK         0.0000 
     54 H54        10.4220   -9.5550   24.0585 H         1 UNK         0.0000 
     55 C55        12.0810   -8.1961   24.3903 C.3       1 UNK         0.0000 
     56 H56        11.7103   -7.4962   23.6679 H         1 UNK         0.0000 
     57 H57        11.7719   -7.8011   25.3536 H         1 UNK         0.0000 
     58 H58        13.1666   -8.1549   24.3557 H         1 UNK         0.0000 
@<TRIPOS>BOND
     1    1    2 1    
     2    1   14 1    
     3    1    3 am   BACKBONE|DICT|INTERRES
     4    2    5 1    
     5    2    7 1    
     6    2   27 1    
     7    3    8 1    
     8    3    4 2    
     9    5    6 2    
    10    5    9 am   BACKBONE|DICT|INTERRES
    11    7   10 1    
    12    7   28 1    
    13    7   29 1    
    14    8   11 1    
    15    8   12 1    
    16    8   30 1    
    17    9   13 1    
    18    9   31 1    
    19   10   14 1    
    20   10   32 1    
    21   10   33 1    
    22   11   34 1    
    23   11   35 1    
    24   11   36 1    
    25   12   15 1    
    26   12   37 1    
    27   12   38 1    
    28   13   16 1    
    29   13   39 1    
    30   13   40 1    
    31   14   41 1    
    32   14   42 1    
    33   15   17 ar   
    34   15   25 ar   
    35   16   18 ar   
    36   16   26 ar   
    37   17   19 ar   
    38   17   43 1    
    39   18   20 ar   
    40   18   44 1    
    41   19   21 ar   
    42   19   45 1    
    43   20   22 ar   
    44   20   52 1    
    45   21   23 ar   
    46   21   46 1    
    47   22   24 ar   
    48   22   51 1    
    49   23   25 ar   
    50   23   47 1    
    51   24   26 ar   
    52   24   48 1    
    53   25   49 1    
    54   26   50 1    
    55   52   53 1    
    56   52   54 1    
    57   52   55 1    
    58   55   56 1    
    59   55   57 1    
    60   55   58 1    
@<TRIPOS>SUBSTRUCTURE
     1 UNK         1 GROUP             0       ****    0 ROOT    
