@<TRIPOS>MOLECULE
5
52   54    1
SMALL
USER_CHARGES


@<TRIPOS>ATOM
      1 N1         18.3833  -13.2487   21.6777 N.am      1 UNK         0.0000 
      2 C2         18.2278  -11.9595   20.9752 C.3       1 UNK         0.0000 
      3 C3         17.4784  -13.7664   22.5477 C.2       1 UNK         0.0000 
      4 O4         16.4768  -13.1400   22.8994 O.2       1 UNK         0.0000 
      5 C5         16.8531  -11.7833   20.2962 C.2       1 UNK         0.0000 
      6 O6         16.4281  -12.6525   19.5327 O.2       1 UNK         0.0000 
      7 C7         19.3563  -11.9389   19.9323 C.3       1 UNK         0.0000 
      8 C8         17.6879  -15.1677   23.1537 C.3       1 UNK         0.0000 
      9 N9         16.1691  -10.6729   20.5899 N.am      1 UNK         0.0000 
     10 C10        20.4245  -12.8650   20.4723 C.3       1 UNK         0.0000 
     11 N11        16.4280  -15.9253   23.0586 N.4       1 UNK         0.0000 
     12 C12        18.1459  -15.1031   24.6296 C.3       1 UNK         0.0000 
     13 C13        14.8261  -10.3435   20.1328 C.3       1 UNK         0.0000 
     14 C14        19.6649  -13.8715   21.3288 C.3       1 UNK         0.0000 
     15 C15        19.5691  -14.6122   24.8281 C.ar      1 UNK         0.0000 
     16 C16        13.7216  -10.7958   21.0762 C.ar      1 UNK         0.0000 
     17 C17        19.8071  -13.3109   25.3061 C.ar      1 UNK         0.0000 
     18 C18        12.8500   -9.8475   21.6537 C.ar      1 UNK         0.0000 
     19 C19        21.1149  -12.8161   25.4203 C.ar      1 UNK         0.0000 
     20 C20        11.8084  -10.2645   22.5058 C.ar      1 UNK         0.0000 
     21 C21        22.2043  -13.6341   25.0731 C.ar      1 UNK         0.0000 
     22 C22        11.6256  -11.6332   22.7778 C.ar      1 UNK         0.0000 
     23 C23        21.9802  -14.9539   24.6379 C.ar      1 UNK         0.0000 
     24 C24        12.4938  -12.5824   22.2070 C.ar      1 UNK         0.0000 
     25 C25        20.6648  -15.4443   24.5158 C.ar      1 UNK         0.0000 
     26 C26        13.5398  -12.1656   21.3620 C.ar      1 UNK         0.0000 
     27 H27        18.3841  -11.1629   21.7027 H         1 UNK         0.0000 
     28 H28        19.0117  -12.3169   18.9680 H         1 UNK         0.0000 
     29 H29        19.7448  -10.9387   19.7693 H         1 UNK         0.0000 
     30 H30        18.4137  -15.7409   22.5791 H         1 UNK         0.0000 
     31 H31        16.6314   -9.9767   21.1728 H         1 UNK         0.0000 
     32 H32        21.0079  -13.3389   19.6825 H         1 UNK         0.0000 
     33 H33        21.1150  -12.3008   21.1005 H         1 UNK         0.0000 
     34 H34        16.5428  -16.8438   23.4593 H         1 UNK         0.0000 
     35 H35        15.7072  -15.4188   23.5592 H         1 UNK         0.0000 
     36 H36        16.1568  -16.0037   22.0896 H         1 UNK         0.0000 
     37 H37        17.4605  -14.4793   25.2074 H         1 UNK         0.0000 
     38 H38        18.0818  -16.0952   25.0780 H         1 UNK         0.0000 
     39 H39        14.7758   -9.2606   20.0240 H         1 UNK         0.0000 
     40 H40        14.6390  -10.7685   19.1451 H         1 UNK         0.0000 
     41 H41        20.2544  -14.1337   22.2048 H         1 UNK         0.0000 
     42 H42        19.4825  -14.7805   20.7542 H         1 UNK         0.0000 
     43 H43        18.9898  -12.6833   25.6026 H         1 UNK         0.0000 
     44 H44        12.9733   -8.7971   21.4417 H         1 UNK         0.0000 
     45 H45        21.2679  -11.8121   25.7857 H         1 UNK         0.0000 
     46 H46        11.1429   -9.5393   22.9496 H         1 UNK         0.0000 
     47 H47        23.2123  -13.2576   25.1589 H         1 UNK         0.0000 
     48 H48        22.8202  -15.5886   24.3944 H         1 UNK         0.0000 
     49 H49        12.3607  -13.6325   22.4239 H         1 UNK         0.0000 
     50 H50        20.5038  -16.4527   24.1624 H         1 UNK         0.0000 
     51 H51        14.2011  -12.9039   20.9321 H         1 UNK         0.0000 
     52 H52        10.8208  -11.9584   23.4233 H         1 UNK         0.0000 
@<TRIPOS>BOND
     1    1    2 1    
     2    1   14 1    
     3    1    3 am   BACKBONE|DICT|INTERRES
     4    2    5 1    
     5    2    7 1    
     6    2   27 1    
     7    3    8 1    
     8    3    4 2    
     9    5    6 2    
    10    5    9 am   BACKBONE|DICT|INTERRES
    11    7   10 1    
    12    7   28 1    
    13    7   29 1    
    14    8   11 1    
    15    8   12 1    
    16    8   30 1    
    17    9   13 1    
    18    9   31 1    
    19   10   14 1    
    20   10   32 1    
    21   10   33 1    
    22   11   34 1    
    23   11   35 1    
    24   11   36 1    
    25   12   15 1    
    26   12   37 1    
    27   12   38 1    
    28   13   16 1    
    29   13   39 1    
    30   13   40 1    
    31   14   41 1    
    32   14   42 1    
    33   15   17 ar   
    34   15   25 ar   
    35   16   18 ar   
    36   16   26 ar   
    37   17   19 ar   
    38   17   43 1    
    39   18   20 ar   
    40   18   44 1    
    41   19   21 ar   
    42   19   45 1    
    43   20   22 ar   
    44   20   46 1    
    45   21   23 ar   
    46   21   47 1    
    47   22   24 ar   
    48   22   52 1    
    49   23   25 ar   
    50   23   48 1    
    51   24   26 ar   
    52   24   49 1    
    53   25   50 1    
    54   26   51 1    
@<TRIPOS>SUBSTRUCTURE
     1 UNK         1 GROUP             0       ****    0 ROOT    
