@<TRIPOS>MOLECULE
1b
52   54    1
SMALL
USER_CHARGES


@<TRIPOS>ATOM
      1 N1         18.2653  -13.2407   21.7065 N.am      1 UNK         0.0000 
      2 C2         18.0666  -11.9445   21.0290 C.3       1 UNK         0.0000 
      3 C3         17.3965  -13.7802   22.5963 C.2       1 UNK         0.0000 
      4 O4         16.3982  -13.1682   22.9797 O.2       1 UNK         0.0000 
      5 C5         16.6625  -11.7536   20.4056 C.2       1 UNK         0.0000 
      6 O6         16.1638  -12.6466   19.7188 O.2       1 UNK         0.0000 
      7 C7         19.1633  -11.8944   19.9556 C.3       1 UNK         0.0000 
      8 C8         17.6504  -15.1803   23.1883 C.3       1 UNK         0.0000 
      9 N9         16.0423  -10.5938   20.6504 N.am      1 UNK         0.0000 
     10 C10        20.2631  -12.8149   20.4461 C.3       1 UNK         0.0000 
     11 N11        16.4086  -15.9682   23.1113 N.4       1 UNK         0.0000 
     12 C12        18.1359  -15.1116   24.6549 C.3       1 UNK         0.0000 
     13 C13        14.7042  -10.2162   20.2151 C.3       1 UNK         0.0000 
     14 C14        19.5455  -13.8412   21.3148 C.3       1 UNK         0.0000 
     15 C15        19.5607  -14.6147   24.8273 C.ar      1 UNK         0.0000 
     16 C16        13.6411  -10.3567   21.2915 C.ar      1 UNK         0.0000 
     17 C17        19.8041  -13.3098   25.2934 C.ar      1 UNK         0.0000 
     18 C18        12.9051  -11.5528   21.4232 C.ar      1 UNK         0.0000 
     19 C19        21.1138  -12.8171   25.3982 C.ar      1 UNK         0.0000 
     20 C20        11.8942  -11.6572   22.4010 C.ar      1 UNK         0.0000 
     21 C21        22.2000  -13.6406   25.0541 C.ar      1 UNK         0.0000 
     22 C22        11.6200  -10.5698   23.2551 C.ar      1 UNK         0.0000 
     23 C23        21.9704  -14.9618   24.6258 C.ar      1 UNK         0.0000 
     24 C24        12.3724   -9.3839   23.1465 C.ar      1 UNK         0.0000 
     25 C25        20.6532  -15.4491   24.5107 C.ar      1 UNK         0.0000 
     26 C26        13.3735   -9.2784   22.1614 C.ar      1 UNK         0.0000 
     27 H27        18.2473  -11.1607   21.7642 H         1 UNK         0.0000 
     28 H28        18.7918  -12.2521   18.9936 H         1 UNK         0.0000 
     29 H29        19.5370  -10.8863   19.8145 H         1 UNK         0.0000 
     30 H30        18.3784  -15.7341   22.5976 H         1 UNK         0.0000 
     31 H31        16.5623   -9.8919   21.1770 H         1 UNK         0.0000 
     32 H32        20.8307  -13.2708   19.6333 H         1 UNK         0.0000 
     33 H33        20.9665  -12.2499   21.0595 H         1 UNK         0.0000 
     34 H34        16.5518  -16.8840   23.5090 H         1 UNK         0.0000 
     35 H35        15.6837  -15.4790   23.6232 H         1 UNK         0.0000 
     36 H36        16.1247  -16.0522   22.1464 H         1 UNK         0.0000 
     37 H37        17.4587  -14.4914   25.2462 H         1 UNK         0.0000 
     38 H38        18.0854  -16.1036   25.1053 H         1 UNK         0.0000 
     39 H39        14.7425   -9.1642   19.9392 H         1 UNK         0.0000 
     40 H40        14.4054  -10.7643   19.3193 H         1 UNK         0.0000 
     41 H41        20.1632  -14.1035   22.1724 H         1 UNK         0.0000 
     42 H42        19.3599  -14.7477   20.7373 H         1 UNK         0.0000 
     43 H43        18.9902  -12.6794   25.5932 H         1 UNK         0.0000 
     44 H44        13.1151  -12.3914   20.7737 H         1 UNK         0.0000 
     45 H45        21.2718  -11.8120   25.7585 H         1 UNK         0.0000 
     46 H46        11.3295  -12.5741   22.5024 H         1 UNK         0.0000 
     47 H47        23.2097  -13.2677   25.1383 H         1 UNK         0.0000 
     48 H48        22.8078  -15.6009   24.3847 H         1 UNK         0.0000 
     49 Cl49       12.1062   -8.0755   24.2428 Cl        1 UNK         0.0000 
     50 H50        20.4886  -16.4600   24.1662 H         1 UNK         0.0000 
     51 H51        13.9512   -8.3702   22.0898 H         1 UNK         0.0000 
     52 H52        10.8471  -10.6549   24.0065 H         1 UNK         0.0000 
@<TRIPOS>BOND
     1    1    2 1    
     2    1   14 1    
     3    1    3 am   BACKBONE|DICT|INTERRES
     4    2    5 1    
     5    2    7 1    
     6    2   27 1    
     7    3    8 1    
     8    3    4 2    
     9    5    6 2    
    10    5    9 am   BACKBONE|DICT|INTERRES
    11    7   10 1    
    12    7   28 1    
    13    7   29 1    
    14    8   11 1    
    15    8   12 1    
    16    8   30 1    
    17    9   13 1    
    18    9   31 1    
    19   10   14 1    
    20   10   32 1    
    21   10   33 1    
    22   11   34 1    
    23   11   35 1    
    24   11   36 1    
    25   12   15 1    
    26   12   37 1    
    27   12   38 1    
    28   13   16 1    
    29   13   39 1    
    30   13   40 1    
    31   14   41 1    
    32   14   42 1    
    33   15   17 ar   
    34   15   25 ar   
    35   16   18 ar   
    36   16   26 ar   
    37   17   19 ar   
    38   17   43 1    
    39   18   20 ar   
    40   18   44 1    
    41   19   21 ar   
    42   19   45 1    
    43   20   22 ar   
    44   20   46 1    
    45   21   23 ar   
    46   21   47 1    
    47   22   24 ar   
    48   22   52 1    
    49   23   25 ar   
    50   23   48 1    
    51   24   26 ar   
    52   24   49 1    
    53   25   50 1    
    54   26   51 1    
@<TRIPOS>SUBSTRUCTURE
     1 UNK         1 GROUP             0       ****    0 ROOT    
