@<TRIPOS>MOLECULE
6b
55   57    1
SMALL
USER_CHARGES


@<TRIPOS>ATOM
      1 N1         18.2326  -13.2133   21.6902 N.am      1 UNK         0.0000 
      2 C2         18.0295  -11.9153   21.0170 C.3       1 UNK         0.0000 
      3 C3         17.3649  -13.7582   22.5771 C.2       1 UNK         0.0000 
      4 O4         16.3644  -13.1506   22.9608 O.2       1 UNK         0.0000 
      5 C5         16.6275  -11.7387   20.3833 C.2       1 UNK         0.0000 
      6 O6         16.1735  -12.6139   19.6444 O.2       1 UNK         0.0000 
      7 C7         19.1347  -11.8556   19.9527 C.3       1 UNK         0.0000 
      8 C8         17.6230  -15.1593   23.1645 C.3       1 UNK         0.0000 
      9 N9         15.9572  -10.6181   20.6810 N.am      1 UNK         0.0000 
     10 C10        20.2327  -12.7823   20.4359 C.3       1 UNK         0.0000 
     11 N11        16.3841  -15.9514   23.0833 N.4       1 UNK         0.0000 
     12 C12        18.1081  -15.0943   24.6316 C.3       1 UNK         0.0000 
     13 C13        14.6005  -10.2793   20.2619 C.3       1 UNK         0.0000 
     14 C14        19.5144  -13.8108   21.3000 C.3       1 UNK         0.0000 
     15 C15        19.5371  -14.6090   24.8070 C.ar      1 UNK         0.0000 
     16 C16        13.5525  -10.3776   21.3703 C.ar      1 UNK         0.0000 
     17 C17        19.7917  -13.3123   25.2901 C.ar      1 UNK         0.0000 
     18 C18        12.7721  -11.5442   21.5857 C.ar      1 UNK         0.0000 
     19 C19        21.1054  -12.8312   25.4007 C.ar      1 UNK         0.0000 
     20 C20        11.7792  -11.5483   22.5905 C.ar      1 UNK         0.0000 
     21 C21        22.1850  -13.6592   25.0464 C.ar      1 UNK         0.0000 
     22 C22        11.5701  -10.4151   23.3971 C.ar      1 UNK         0.0000 
     23 C23        21.9443  -14.9725   24.6001 C.ar      1 UNK         0.0000 
     24 C24        12.3694   -9.2730   23.2182 C.ar      1 UNK         0.0000 
     25 C25        20.6231  -15.4476   24.4787 C.ar      1 UNK         0.0000 
     26 C26        13.3447   -9.2541   22.2017 C.ar      1 UNK         0.0000 
     27 H27        18.1987  -11.1319   21.7552 H         1 UNK         0.0000 
     28 H28        18.7713  -12.1966   18.9815 H         1 UNK         0.0000 
     29 H29        19.5119  -10.8469   19.8329 H         1 UNK         0.0000 
     30 H30        18.3523  -15.7097   22.5722 H         1 UNK         0.0000 
     31 H31        16.4535   -9.9185   21.2309 H         1 UNK         0.0000 
     32 H32        20.7979  -13.2353   19.6198 H         1 UNK         0.0000 
     33 H33        20.9390  -12.2232   21.0514 H         1 UNK         0.0000 
     34 H34        16.5305  -16.8685   23.4768 H         1 UNK         0.0000 
     35 H35        15.6578  -15.4670   23.5979 H         1 UNK         0.0000 
     36 H36        16.1005  -16.0317   22.1180 H         1 UNK         0.0000 
     37 H37        17.4346  -14.4699   25.2226 H         1 UNK         0.0000 
     38 H38        18.0499  -16.0861   25.0816 H         1 UNK         0.0000 
     39 H39        14.6229   -9.2395   19.9408 H         1 UNK         0.0000 
     40 H40        14.2982  -10.8463   19.3811 H         1 UNK         0.0000 
     41 H41        20.1305  -14.0741   22.1584 H         1 UNK         0.0000 
     42 H42        19.3317  -14.7162   20.7198 H         1 UNK         0.0000 
     43 H43        18.9836  -12.6796   25.5998 H         1 UNK         0.0000 
     44 H44        21.2718  -11.8319   25.7737 H         1 UNK         0.0000 
     45 H45        11.1758  -12.4294   22.7620 H         1 UNK         0.0000 
     46 H46        23.1977  -13.2959   25.1364 H         1 UNK         0.0000 
     47 H47        22.7761  -15.6154   24.3500 H         1 UNK         0.0000 
     48 Cl48       12.1866   -7.9177   24.2734 Cl        1 UNK         0.0000 
     49 H49        20.4503  -16.4525   24.1211 H         1 UNK         0.0000 
     50 H50        13.9540   -8.3729   22.0762 H         1 UNK         0.0000 
     51 H51        10.8148  -10.4350   24.1703 H         1 UNK         0.0000 
     52 C52        12.9870  -12.8115   20.7791 C.3       1 UNK         0.0000 
     53 H53        12.2300  -13.5615   21.0116 H         1 UNK         0.0000 
     54 H54        12.9422  -12.6183   19.7085 H         1 UNK         0.0000 
     55 H55        13.9602  -13.2416   21.0165 H         1 UNK         0.0000 
@<TRIPOS>BOND
     1    1    2 1    
     2    1   14 1    
     3    1    3 am   BACKBONE|DICT|INTERRES
     4    2    5 1    
     5    2    7 1    
     6    2   27 1    
     7    3    8 1    
     8    3    4 2    
     9    5    6 2    
    10    5    9 am   BACKBONE|DICT|INTERRES
    11    7   10 1    
    12    7   28 1    
    13    7   29 1    
    14    8   11 1    
    15    8   12 1    
    16    8   30 1    
    17    9   13 1    
    18    9   31 1    
    19   10   14 1    
    20   10   32 1    
    21   10   33 1    
    22   11   34 1    
    23   11   35 1    
    24   11   36 1    
    25   12   15 1    
    26   12   37 1    
    27   12   38 1    
    28   13   16 1    
    29   13   39 1    
    30   13   40 1    
    31   14   41 1    
    32   14   42 1    
    33   15   17 ar   
    34   15   25 ar   
    35   16   18 ar   
    36   16   26 ar   
    37   17   19 ar   
    38   17   43 1    
    39   18   20 ar   
    40   18   52 1    
    41   19   21 ar   
    42   19   44 1    
    43   20   22 ar   
    44   20   45 1    
    45   21   23 ar   
    46   21   46 1    
    47   22   24 ar   
    48   22   51 1    
    49   23   25 ar   
    50   23   47 1    
    51   24   26 ar   
    52   24   48 1    
    53   25   49 1    
    54   26   50 1    
    55   52   53 1    
    56   52   54 1    
    57   52   55 1    
@<TRIPOS>SUBSTRUCTURE
     1 UNK         1 GROUP             0       ****    0 ROOT    
