@<TRIPOS>MOLECULE
3a
55   57    1
SMALL
USER_CHARGES


@<TRIPOS>ATOM
      1 N1         18.3586  -13.2433   21.6782 N.am      1 UNK         0.0000 
      2 C2         18.1955  -11.9531   20.9799 C.3       1 UNK         0.0000 
      3 C3         17.4601  -13.7625   22.5530 C.2       1 UNK         0.0000 
      4 O4         16.4632  -13.1349   22.9149 O.2       1 UNK         0.0000 
      5 C5         16.8176  -11.7793   20.3045 C.2       1 UNK         0.0000 
      6 O6         16.3847  -12.6581   19.5563 O.2       1 UNK         0.0000 
      7 C7         19.3213  -11.9263   19.9342 C.3       1 UNK         0.0000 
      8 C8         17.6743  -15.1650   23.1542 C.3       1 UNK         0.0000 
      9 N9         16.1459  -10.6550   20.5743 N.am      1 UNK         0.0000 
     10 C10        20.3937  -12.8539   20.4646 C.3       1 UNK         0.0000 
     11 N11        16.4158  -15.9247   23.0599 N.4       1 UNK         0.0000 
     12 C12        18.1376  -15.1029   24.6287 C.3       1 UNK         0.0000 
     13 C13        14.8056  -10.3296   20.1078 C.3       1 UNK         0.0000 
     14 C14        19.6396  -13.8634   21.3222 C.3       1 UNK         0.0000 
     15 C15        19.5621  -14.6136   24.8242 C.ar      1 UNK         0.0000 
     16 C16        13.7048  -10.8483   21.0151 C.ar      1 UNK         0.0000 
     17 C17        19.8032  -13.3127   25.3021 C.ar      1 UNK         0.0000 
     18 C18        13.2757  -12.1872   20.9048 C.ar      1 UNK         0.0000 
     19 C19        21.1122  -12.8206   25.4158 C.ar      1 UNK         0.0000 
     20 C20        12.2474  -12.6715   21.7347 C.ar      1 UNK         0.0000 
     21 C21        22.1996  -13.6407   25.0687 C.ar      1 UNK         0.0000 
     22 C22        11.6484  -11.8212   22.6817 C.ar      1 UNK         0.0000 
     23 C23        21.9724  -14.9597   24.6331 C.ar      1 UNK         0.0000 
     24 C24        12.0807  -10.4868   22.8072 C.ar      1 UNK         0.0000 
     25 C25        20.6559  -15.4473   24.5109 C.ar      1 UNK         0.0000 
     26 C26        13.1054   -9.9983   21.9692 C.ar      1 UNK         0.0000 
     27 H27        18.3513  -11.1579   21.7090 H         1 UNK         0.0000 
     28 H28        18.9738  -12.2977   18.9684 H         1 UNK         0.0000 
     29 H29        19.7085  -10.9248   19.7784 H         1 UNK         0.0000 
     30 H30        18.3994  -15.7356   22.5759 H         1 UNK         0.0000 
     31 H31        16.6121   -9.9542   21.1482 H         1 UNK         0.0000 
     32 H32        20.9742  -13.3247   19.6706 H         1 UNK         0.0000 
     33 H33        21.0870  -12.2912   21.0912 H         1 UNK         0.0000 
     34 H34        16.5325  -16.8438   23.4588 H         1 UNK         0.0000 
     35 H35        15.6949  -15.4200   23.5622 H         1 UNK         0.0000 
     36 H36        16.1429  -16.0014   22.0912 H         1 UNK         0.0000 
     37 H37        17.4545  -14.4794   25.2096 H         1 UNK         0.0000 
     38 H38        18.0738  -16.0956   25.0759 H         1 UNK         0.0000 
     39 H39        14.7242   -9.2447   20.0427 H         1 UNK         0.0000 
     40 H40        14.6468  -10.7188   19.1008 H         1 UNK         0.0000 
     41 H41        20.2332  -14.1270   22.1951 H         1 UNK         0.0000 
     42 H42        19.4557  -14.7713   20.7464 H         1 UNK         0.0000 
     43 H43        18.9874  -12.6835   25.5989 H         1 UNK         0.0000 
     44 H44        13.7415  -12.8460   20.1858 H         1 UNK         0.0000 
     45 H45        21.2679  -11.8171   25.7811 H         1 UNK         0.0000 
     46 H46        11.9202  -13.6985   21.6578 H         1 UNK         0.0000 
     47 H47        23.2085  -13.2665   25.1547 H         1 UNK         0.0000 
     48 H48        22.8108  -15.5961   24.3898 H         1 UNK         0.0000 
     49 H49        20.4927  -16.4552   24.1578 H         1 UNK         0.0000 
     50 H50        13.4444   -8.9775   22.0683 H         1 UNK         0.0000 
     51 H51        10.8638  -12.2037   23.3202 H         1 UNK         0.0000 
     52 C52        11.4642   -9.6050   23.8704 C.3       1 UNK         0.0000 
     53 H53        11.7626   -8.5635   23.7535 H         1 UNK         0.0000 
     54 H54        10.3771   -9.6708   23.8407 H         1 UNK         0.0000 
     55 H55        11.7848   -9.9408   24.8546 H         1 UNK         0.0000 
@<TRIPOS>BOND
     1    1    2 1    
     2    1   14 1    
     3    1    3 am   BACKBONE|DICT|INTERRES
     4    2    5 1    
     5    2    7 1    
     6    2   27 1    
     7    3    8 1    
     8    3    4 2    
     9    5    6 2    
    10    5    9 am   BACKBONE|DICT|INTERRES
    11    7   10 1    
    12    7   28 1    
    13    7   29 1    
    14    8   11 1    
    15    8   12 1    
    16    8   30 1    
    17    9   13 1    
    18    9   31 1    
    19   10   14 1    
    20   10   32 1    
    21   10   33 1    
    22   11   34 1    
    23   11   35 1    
    24   11   36 1    
    25   12   15 1    
    26   12   37 1    
    27   12   38 1    
    28   13   16 1    
    29   13   39 1    
    30   13   40 1    
    31   14   41 1    
    32   14   42 1    
    33   15   17 ar   
    34   15   25 ar   
    35   16   18 ar   
    36   16   26 ar   
    37   17   19 ar   
    38   17   43 1    
    39   18   20 ar   
    40   18   44 1    
    41   19   21 ar   
    42   19   45 1    
    43   20   22 ar   
    44   20   46 1    
    45   21   23 ar   
    46   21   47 1    
    47   22   24 ar   
    48   22   51 1    
    49   23   25 ar   
    50   23   48 1    
    51   24   26 ar   
    52   24   52 1    
    53   25   49 1    
    54   26   50 1    
    55   52   53 1    
    56   52   54 1    
    57   52   55 1    
@<TRIPOS>SUBSTRUCTURE
     1 UNK         1 GROUP             0       ****    0 ROOT    
