@<TRIPOS>MOLECULE
1c
52   54    1
SMALL
USER_CHARGES


@<TRIPOS>ATOM
      1 N1         18.2567  -13.2370   21.7047 N.am      1 UNK         0.0000 
      2 C2         18.0563  -11.9400   21.0292 C.3       1 UNK         0.0000 
      3 C3         17.3896  -13.7779   22.5952 C.2       1 UNK         0.0000 
      4 O4         16.3917  -13.1666   22.9805 O.2       1 UNK         0.0000 
      5 C5         16.6512  -11.7486   20.4074 C.2       1 UNK         0.0000 
      6 O6         16.1521  -12.6411   19.7201 O.2       1 UNK         0.0000 
      7 C7         19.1524  -11.8879   19.9553 C.3       1 UNK         0.0000 
      8 C8         17.6454  -15.1784   23.1855 C.3       1 UNK         0.0000 
      9 N9         16.0303  -10.5893   20.6541 N.am      1 UNK         0.0000 
     10 C10        20.2529  -12.8095   20.4423 C.3       1 UNK         0.0000 
     11 N11        16.4042  -15.9674   23.1089 N.4       1 UNK         0.0000 
     12 C12        18.1324  -15.1110   24.6516 C.3       1 UNK         0.0000 
     13 C13        14.6909  -10.2121   20.2216 C.3       1 UNK         0.0000 
     14 C14        19.5366  -13.8367   21.3109 C.3       1 UNK         0.0000 
     15 C15        19.5574  -14.6140   24.8234 C.ar      1 UNK         0.0000 
     16 C16        13.6305  -10.3468   21.3020 C.ar      1 UNK         0.0000 
     17 C17        19.8009  -13.3110   25.2946 C.ar      1 UNK         0.0000 
     18 C18        12.8881  -11.5388   21.4361 C.ar      1 UNK         0.0000 
     19 C19        21.1106  -12.8184   25.4002 C.ar      1 UNK         0.0000 
     20 C20        11.8799  -11.6379   22.4174 C.ar      1 UNK         0.0000 
     21 C21        22.1968  -13.6402   25.0518 C.ar      1 UNK         0.0000 
     22 C22        11.6148  -10.5494   23.2729 C.ar      1 UNK         0.0000 
     23 C23        21.9671  -14.9595   24.6177 C.ar      1 UNK         0.0000 
     24 C24        12.3735   -9.3681   23.1621 C.ar      1 UNK         0.0000 
     25 C25        20.6499  -15.4468   24.5018 C.ar      1 UNK         0.0000 
     26 C26        13.3715   -9.2675   22.1733 C.ar      1 UNK         0.0000 
     27 H27        18.2374  -11.1573   21.7653 H         1 UNK         0.0000 
     28 H28        18.7803  -12.2424   18.9923 H         1 UNK         0.0000 
     29 H29        19.5264  -10.8796   19.8178 H         1 UNK         0.0000 
     30 H30        18.3731  -15.7311   22.5934 H         1 UNK         0.0000 
     31 H31        16.5517   -9.8879   21.1798 H         1 UNK         0.0000 
     32 H32        20.8191  -13.2644   19.6280 H         1 UNK         0.0000 
     33 H33        20.9575  -12.2457   21.0555 H         1 UNK         0.0000 
     34 H34        16.5487  -16.8835   23.5056 H         1 UNK         0.0000 
     35 H35        15.6795  -15.4794   23.6220 H         1 UNK         0.0000 
     36 H36        16.1194  -16.0508   22.1442 H         1 UNK         0.0000 
     37 H37        17.4555  -14.4917   25.2441 H         1 UNK         0.0000 
     38 H38        18.0825  -16.1035   25.1011 H         1 UNK         0.0000 
     39 H39        14.7289   -9.1614   19.9406 H         1 UNK         0.0000 
     40 H40        14.3887  -10.7636   19.3291 H         1 UNK         0.0000 
     41 H41        20.1554  -14.0995   22.1675 H         1 UNK         0.0000 
     42 H42        19.3507  -14.7429   20.7328 H         1 UNK         0.0000 
     43 H43        18.9872  -12.6824   25.5984 H         1 UNK         0.0000 
     44 H44        13.0911  -12.3786   20.7858 H         1 UNK         0.0000 
     45 H45        21.2684  -11.8147   25.7648 H         1 UNK         0.0000 
     46 H46        11.3106  -12.5518   22.5207 H         1 UNK         0.0000 
     47 H47        23.2064  -13.2675   25.1372 H         1 UNK         0.0000 
     48 H48        22.8043  -15.5975   24.3729 H         1 UNK         0.0000 
     49 Br49       12.0950   -7.9251   24.3750 Br        1 UNK         0.0000 
     50 H50        20.4851  -16.4562   24.1532 H         1 UNK         0.0000 
     51 H51        13.9534   -8.3622   22.1014 H         1 UNK         0.0000 
     52 H52        10.8447  -10.6298   24.0277 H         1 UNK         0.0000 
@<TRIPOS>BOND
     1    1    2 1    
     2    1   14 1    
     3    1    3 am   BACKBONE|DICT|INTERRES
     4    2    5 1    
     5    2    7 1    
     6    2   27 1    
     7    3    8 1    
     8    3    4 2    
     9    5    6 2    
    10    5    9 am   BACKBONE|DICT|INTERRES
    11    7   10 1    
    12    7   28 1    
    13    7   29 1    
    14    8   11 1    
    15    8   12 1    
    16    8   30 1    
    17    9   13 1    
    18    9   31 1    
    19   10   14 1    
    20   10   32 1    
    21   10   33 1    
    22   11   34 1    
    23   11   35 1    
    24   11   36 1    
    25   12   15 1    
    26   12   37 1    
    27   12   38 1    
    28   13   16 1    
    29   13   39 1    
    30   13   40 1    
    31   14   41 1    
    32   14   42 1    
    33   15   17 ar   
    34   15   25 ar   
    35   16   18 ar   
    36   16   26 ar   
    37   17   19 ar   
    38   17   43 1    
    39   18   20 ar   
    40   18   44 1    
    41   19   21 ar   
    42   19   45 1    
    43   20   22 ar   
    44   20   46 1    
    45   21   23 ar   
    46   21   47 1    
    47   22   24 ar   
    48   22   52 1    
    49   23   25 ar   
    50   23   48 1    
    51   24   26 ar   
    52   24   49 1    
    53   25   50 1    
    54   26   51 1    
@<TRIPOS>SUBSTRUCTURE
     1 UNK         1 GROUP             0       ****    0 ROOT    
