18626-1
                    3D
 Schrodinger Suite 2021-2.
 38 39  0  0  1  0            999 V2000
   24.4882   10.7123   30.9066 C   0  0  0  0  0  0
   23.1781   11.1586   30.2765 C   0  0  0  0  0  0
   22.1836   11.3216   31.2694 O   0  0  0  0  0  0
   21.4250   10.2457   31.6713 C   0  0  0  0  0  0
   21.7731    9.0119   31.2539 N   0  0  0  0  0  0
   21.0393    7.9449   31.6188 C   0  0  0  0  0  0
   19.9098    8.0974   32.4435 C   0  0  0  0  0  0
   19.5399    9.3733   32.8713 C   0  0  0  0  0  0
   18.4159    9.4724   33.6685 N   0  0  0  0  0  0
   20.3047   10.4805   32.4758 C   0  0  0  0  0  0
   19.9546   11.8369   32.8386 C   0  0  0  0  0  0
   19.6771   12.9190   33.1158 N   0  0  0  0  0  0
   21.5045    6.6666   31.2215 N   0  0  0  0  0  0
   20.8573    5.4963   31.1249 C   0  0  0  0  0  0
   19.6439    5.3954   31.2758 O   0  0  0  0  0  0
   21.6310    4.2374   30.6874 C   0  0  0  0  0  0
   23.1374    4.2833   30.8645 C   0  0  0  0  0  0
   23.8644    5.2630   30.1804 C   0  0  0  0  0  0
   25.2392    5.3866   30.3643 C   0  0  0  0  0  0
   26.0544    6.6630   29.5698 Cl  0  0  0  0  0  0
   25.9259    4.4718   31.1699 C   0  0  0  0  0  0
   25.2189    3.4400   31.8088 C   0  0  0  0  0  0
   23.8226    3.3454   31.6636 C   0  0  0  0  0  0
   25.2755   10.6427   30.1564 H   0  0  0  0  0  0
   24.3913    9.7279   31.3655 H   0  0  0  0  0  0
   24.8174   11.4175   31.6682 H   0  0  0  0  0  0
   23.3281   12.1252   29.8013 H   0  0  0  0  0  0
   22.8697   10.4820   29.4793 H   0  0  0  0  0  0
   19.3217    7.2513   32.7708 H   0  0  0  0  0  0
   18.0044   10.3634   33.9160 H   0  0  0  0  0  0
   17.8967    8.6485   33.9391 H   0  0  0  0  0  0
   22.4655    6.6449   30.9280 H   0  0  0  0  0  0
   21.2348    3.3789   31.2323 H   0  0  0  0  0  0
   21.4182    4.0599   29.6351 H   0  0  0  0  0  0
   23.3686    5.9463   29.5062 H   0  0  0  0  0  0
   26.9985    4.5475   31.2846 H   0  0  0  0  0  0
   25.7438    2.7183   32.4192 H   0  0  0  0  0  0
   23.2812    2.5588   32.1699 H   0  0  0  0  0  0
  1  2  1  0  0  0
  1 24  1  0  0  0
  1 25  1  0  0  0
  1 26  1  0  0  0
  2  3  1  0  0  0
  2 27  1  0  0  0
  2 28  1  0  0  0
  3  4  1  0  0  0
  4 10  1  0  0  0
  4  5  2  0  0  0
  5  6  1  0  0  0
  6  7  2  0  0  0
  6 13  1  0  0  0
  7  8  1  0  0  0
  7 29  1  0  0  0
  8  9  1  0  0  0
  8 10  2  0  0  0
  9 30  1  0  0  0
  9 31  1  0  0  0
 10 11  1  0  0  0
 11 12  3  0  0  0
 13 14  1  0  0  0
 13 32  1  0  0  0
 14 15  2  0  0  0
 14 16  1  0  0  0
 16 17  1  0  0  0
 16 33  1  0  0  0
 16 34  1  0  0  0
 17 23  1  0  0  0
 17 18  2  0  0  0
 18 19  1  0  0  0
 18 35  1  0  0  0
 19 20  1  0  0  0
 19 21  2  0  0  0
 21 22  1  0  0  0
 21 36  1  0  0  0
 22 23  2  0  0  0
 22 37  1  0  0  0
 23 38  1  0  0  0
M  END
> <i_m_stars>
0

> <s_m_entry_id>
2999

> <s_m_entry_name>
Jnk1_18626-1.1

> <s_m_Source_Path>
C:\Users\yujiethinkpad\Desktop\05A\JNK1

> <s_m_Source_File>
Jnk1_18626-1.sdf

> <i_m_Source_File_Index>
1

> <s_i_glide_gridfile>
glide-grid_JNK1

> <r_i_docking_score>
-8.03256180486612

> <r_i_glide_ecoul>
-6.96016931533813

> <r_i_glide_einternal>
7.81605958938599

> <r_i_glide_emodel>
-48.5913087023299

> <r_i_glide_energy>
-42.4742341041565

> <r_i_glide_erotb>
0.687793016403273

> <r_i_glide_esite>
0

> <r_i_glide_evdw>
-35.5140647888184

> <r_i_glide_gscore>
-8.03256180486612

> <r_i_glide_hbond>
-0.478647253155417

> <r_i_glide_ligand_efficiency>
-0.349241817602875

> <r_i_glide_ligand_efficiency_ln>
-1.94234627966017

> <r_i_glide_ligand_efficiency_sa>
-0.993197272026104

> <r_i_glide_lipo>
-3.34500549891112

> <r_i_glide_metal>
0

> <r_i_glide_rewards>
-2.07697343246122

> <i_i_glide_confnum>
10

> <i_i_glide_lignum>
17

> <i_i_glide_posenum>
269

> <i_i_glide_rotatable_bonds>
6

> <r_i_glide_eff_state_penalty>
0

> <s_m_job_name>
glide-dock_SP_other_0535

> <r_user_dG.exp>
-8.872536

> <r_m_Molecular_weight>
330.77655

> <r_glide_shape_similarity>
0.870096683502197

> <s_m_subgroup_title>
glide-dock_SP_other_0535_lib1

> <s_m_subgroupid>
glide-dock_SP_other_0535_lib1

> <b_m_subgroup_collapsed>
0

$$$$
