18631-1
                    3D
 Schrodinger Suite 2021-2.
 42 43  0  0  1  0            999 V2000
   18.1080    7.7270   32.1730 C   0  0  0  0  0  0
   18.4890    8.4817   33.4593 C   0  0  0  0  0  0
   19.2272    9.6640   33.2545 O   0  0  0  0  0  0
   20.3929    9.5349   32.5543 C   0  0  0  0  0  0
   20.8122    8.2914   32.2923 N   0  0  0  0  0  0
   21.6995    8.0691   31.3373 C   0  0  0  0  0  0
   22.4291    9.1444   30.7971 C   0  0  0  0  0  0
   22.1335   10.4607   31.2038 C   0  0  0  0  0  0
   22.9018   11.5032   30.6896 N   0  0  0  0  0  0
   21.0391   10.6665   32.0703 C   0  0  0  0  0  0
   20.5114   11.9600   32.4697 C   0  0  0  0  0  0
   20.0796   12.9813   32.7959 N   0  0  0  0  0  0
   21.9736    6.7685   30.8707 N   0  0  0  0  0  0
   21.3348    5.5996   31.0677 C   0  0  0  0  0  0
   20.2805    5.4527   31.6700 O   0  0  0  0  0  0
   21.9718    4.3793   30.4112 C   0  0  0  0  0  0
   23.4676    4.3451   30.6653 C   0  0  0  0  0  0
   24.0273    3.4038   31.5487 C   0  0  0  0  0  0
   23.2113    2.4370   32.0717 O   0  0  0  0  0  0
   23.7473    1.5417   33.0263 C   0  0  0  0  0  0
   25.4064    3.4718   31.8225 C   0  0  0  0  0  0
   26.2148    4.4397   31.2126 C   0  0  0  0  0  0
   25.6656    5.3372   30.2926 C   0  0  0  0  0  0
   24.3023    5.2684   30.0022 C   0  0  0  0  0  0
   17.6112    6.8002   32.4149 H   0  0  0  0  0  0
   18.8798    7.3608   31.5188 H   0  0  0  0  0  0
   17.6112    8.3874   31.4961 H   0  0  0  0  0  0
   17.6104    8.7987   34.0158 H   0  0  0  0  0  0
   19.0538    7.7889   34.0697 H   0  0  0  0  0  0
   23.2092    8.9621   30.0731 H   0  0  0  0  0  0
   22.7202   12.4625   30.9318 H   0  0  0  0  0  0
   23.6622   11.3438   30.0465 H   0  0  0  0  0  0
   22.8109    6.6811   30.3235 H   0  0  0  0  0  0
   21.4788    3.4711   30.7590 H   0  0  0  0  0  0
   21.7920    4.4282   29.3369 H   0  0  0  0  0  0
   22.9619    0.8633   33.3612 H   0  0  0  0  0  0
   24.5386    0.9277   32.5938 H   0  0  0  0  0  0
   24.1312    2.0672   33.9017 H   0  0  0  0  0  0
   25.8849    2.7805   32.4992 H   0  0  0  0  0  0
   27.2707    4.4786   31.4390 H   0  0  0  0  0  0
   26.2945    6.0673   29.8033 H   0  0  0  0  0  0
   23.8994    5.9481   29.2663 H   0  0  0  0  0  0
  1  2  1  0  0  0
  1 25  1  0  0  0
  1 26  1  0  0  0
  1 27  1  0  0  0
  2  3  1  0  0  0
  2 28  1  0  0  0
  2 29  1  0  0  0
  3  4  1  0  0  0
  4 10  1  0  0  0
  4  5  2  0  0  0
  5  6  1  0  0  0
  6  7  2  0  0  0
  6 13  1  0  0  0
  7  8  1  0  0  0
  7 30  1  0  0  0
  8  9  1  0  0  0
  8 10  2  0  0  0
  9 31  1  0  0  0
  9 32  1  0  0  0
 10 11  1  0  0  0
 11 12  3  0  0  0
 13 14  1  0  0  0
 13 33  1  0  0  0
 14 15  2  0  0  0
 14 16  1  0  0  0
 16 17  1  0  0  0
 16 34  1  0  0  0
 16 35  1  0  0  0
 17 24  1  0  0  0
 17 18  2  0  0  0
 18 19  1  0  0  0
 18 21  1  0  0  0
 19 20  1  0  0  0
 20 36  1  0  0  0
 20 37  1  0  0  0
 20 38  1  0  0  0
 21 22  2  0  0  0
 21 39  1  0  0  0
 22 23  1  0  0  0
 22 40  1  0  0  0
 23 24  2  0  0  0
 23 41  1  0  0  0
 24 42  1  0  0  0
M  END
> <i_m_stars>
0

> <s_m_entry_id>
3006

> <s_m_entry_name>
Jnk1_18631-1.1

> <s_m_Source_Path>
C:\Users\yujiethinkpad\Desktop\05A\JNK1

> <s_m_Source_File>
Jnk1_18631-1.sdf

> <i_m_Source_File_Index>
1

> <s_i_glide_gridfile>
glide-grid_JNK1

> <r_i_docking_score>
-6.46518828982957

> <r_i_glide_ecoul>
-3.43303918838501

> <r_i_glide_einternal>
1.98866021633148

> <r_i_glide_emodel>
-33.4565716300324

> <r_i_glide_energy>
-37.3321785926819

> <r_i_glide_erotb>
0.88041336613276

> <r_i_glide_esite>
0

> <r_i_glide_evdw>
-33.8991394042969

> <r_i_glide_gscore>
-6.46518828982957

> <r_i_glide_hbond>
-0.245522648191346

> <r_i_glide_ligand_efficiency>
-0.269382845409565

> <r_i_glide_ligand_efficiency_ln>
-1.54741622591568

> <r_i_glide_ligand_efficiency_sa>
-0.777034585257112

> <r_i_glide_lipo>
-2.77801440698104

> <r_i_glide_metal>
0

> <r_i_glide_rewards>
-2.11215175231734

> <i_i_glide_confnum>
15

> <i_i_glide_lignum>
2

> <i_i_glide_posenum>
172

> <i_i_glide_rotatable_bonds>
7

> <r_i_glide_eff_state_penalty>
0

> <s_m_job_name>
glide-dock_SP_other_0535

> <r_user_dG.exp>
-9.413821

> <r_m_Molecular_weight>
326.35801

> <r_glide_shape_similarity>
0.819551348686218

> <s_m_subgroup_title>
glide-dock_SP_other_0535_lib1

> <s_m_subgroupid>
glide-dock_SP_other_0535_lib1

> <b_m_subgroup_collapsed>
0

$$$$
