18652-1
                    3D
 Schrodinger Suite 2021-2.
 55 56  0  0  1  0            999 V2000
   23.7697   12.5373   29.9127 C   0  0  0  0  0  0
   23.3535   11.1421   30.4101 C   0  0  0  0  0  0
   24.5470   10.4605   31.1206 C   0  0  0  0  0  0
   22.2228   11.3384   31.2700 O   0  0  0  0  0  0
   21.4409   10.2650   31.6690 C   0  0  0  0  0  0
   21.7903    9.0355   31.2382 N   0  0  0  0  0  0
   21.0676    7.9615   31.5920 C   0  0  0  0  0  0
   19.9256    8.0818   32.4233 C   0  0  0  0  0  0
   19.5450    9.3611   32.8704 C   0  0  0  0  0  0
   18.4105    9.4582   33.6693 N   0  0  0  0  0  0
   20.3069   10.4880   32.4772 C   0  0  0  0  0  0
   19.9531   11.8476   32.8429 C   0  0  0  0  0  0
   19.6714   12.9318   33.1162 N   0  0  0  0  0  0
   21.5496    6.7430   31.0740 N   0  0  0  0  0  0
   21.0306    5.5145   31.0815 C   0  0  0  0  0  0
   20.0088    5.1985   31.6697 O   0  0  0  0  0  0
   21.7822    4.4900   30.2353 C   0  0  0  0  0  0
   23.2124    4.3023   30.7293 C   0  0  0  0  0  0
   24.2811    5.1670   30.3361 C   0  0  0  0  0  0
   24.0175    6.2605   29.5276 O   0  0  0  0  0  0
   25.0561    7.2263   29.3230 C   0  0  0  0  0  0
   25.5908    4.8669   30.7852 C   0  0  0  0  0  0
   25.8216    3.7678   31.6385 C   0  0  0  0  0  0
   27.5510    3.4239   32.0626 S   0  0  0  0  0  0
   28.3367    4.6440   31.7791 O   0  0  0  0  0  0
   27.6159    2.7997   33.4025 O   0  0  0  0  0  0
   28.0466    2.1432   30.8204 C   0  0  0  0  0  0
   24.7559    2.9138   32.0433 C   0  0  0  0  0  0
   23.4547    3.1986   31.5693 C   0  0  0  0  0  0
   25.0133    1.8277   32.8602 O   0  0  0  0  0  0
   23.9969    0.8363   33.0281 C   0  0  0  0  0  0
   24.6134   12.4689   29.2245 H   0  0  0  0  0  0
   24.0593   13.1941   30.7356 H   0  0  0  0  0  0
   22.9453   13.0176   29.3830 H   0  0  0  0  0  0
   23.0543   10.5546   29.5377 H   0  0  0  0  0  0
   25.3745   10.3112   30.4271 H   0  0  0  0  0  0
   24.9164   11.0624   31.9502 H   0  0  0  0  0  0
   24.2862    9.4815   31.5175 H   0  0  0  0  0  0
   19.3467    7.2226   32.7211 H   0  0  0  0  0  0
   18.0003   10.3559   33.9199 H   0  0  0  0  0  0
   17.8783    8.6382   33.9391 H   0  0  0  0  0  0
   22.3923    6.8296   30.5257 H   0  0  0  0  0  0
   21.2449    3.5416   30.2399 H   0  0  0  0  0  0
   21.7984    4.8212   29.1996 H   0  0  0  0  0  0
   24.6425    8.0807   28.7874 H   0  0  0  0  0  0
   25.4739    7.5957   30.2614 H   0  0  0  0  0  0
   25.8602    6.8085   28.7137 H   0  0  0  0  0  0
   26.4340    5.4730   30.4847 H   0  0  0  0  0  0
   29.0874    1.8792   30.9884 H   0  0  0  0  0  0
   27.4209    1.2595   30.9490 H   0  0  0  0  0  0
   27.9253    2.5421   29.8139 H   0  0  0  0  0  0
   22.6235    2.5522   31.8028 H   0  0  0  0  0  0
   24.4239   -0.0127   33.5616 H   0  0  0  0  0  0
   23.1623    1.1997   33.6272 H   0  0  0  0  0  0
   23.6333    0.4586   32.0715 H   0  0  0  0  0  0
  1  2  1  0  0  0
  1 32  1  0  0  0
  1 33  1  0  0  0
  1 34  1  0  0  0
  2  3  1  0  0  0
  2  4  1  0  0  0
  2 35  1  0  0  0
  3 36  1  0  0  0
  3 37  1  0  0  0
  3 38  1  0  0  0
  4  5  1  0  0  0
  5 11  1  0  0  0
  5  6  2  0  0  0
  6  7  1  0  0  0
  7  8  2  0  0  0
  7 14  1  0  0  0
  8  9  1  0  0  0
  8 39  1  0  0  0
  9 10  1  0  0  0
  9 11  2  0  0  0
 10 40  1  0  0  0
 10 41  1  0  0  0
 11 12  1  0  0  0
 12 13  3  0  0  0
 14 15  1  0  0  0
 14 42  1  0  0  0
 15 16  2  0  0  0
 15 17  1  0  0  0
 17 18  1  0  0  0
 17 43  1  0  0  0
 17 44  1  0  0  0
 18 29  1  0  0  0
 18 19  2  0  0  0
 19 20  1  0  0  0
 19 22  1  0  0  0
 20 21  1  0  0  0
 21 45  1  0  0  0
 21 46  1  0  0  0
 21 47  1  0  0  0
 22 23  2  0  0  0
 22 48  1  0  0  0
 23 24  1  0  0  0
 23 28  1  0  0  0
 24 25  2  0  0  0
 24 26  2  0  0  0
 24 27  1  0  0  0
 27 49  1  0  0  0
 27 50  1  0  0  0
 27 51  1  0  0  0
 28 29  2  0  0  0
 28 30  1  0  0  0
 29 52  1  0  0  0
 30 31  1  0  0  0
 31 53  1  0  0  0
 31 54  1  0  0  0
 31 55  1  0  0  0
M  END
> <i_m_stars>
0

> <s_m_entry_id>
2988

> <s_m_entry_name>
Jnk1_18652-1.1

> <s_m_Source_Path>
C:\Users\yujiethinkpad\Desktop\05A\JNK1

> <s_m_Source_File>
Jnk1_18652-1.sdf

> <i_m_Source_File_Index>
1

> <s_i_glide_gridfile>
glide-grid_JNK1

> <r_i_docking_score>
-8.22608383940421

> <r_i_glide_ecoul>
-8.15172863006592

> <r_i_glide_einternal>
8.5950927734375

> <r_i_glide_emodel>
-57.2600563363455

> <r_i_glide_energy>
-49.4546422958374

> <r_i_glide_erotb>
0.49797551862125

> <r_i_glide_esite>
0

> <r_i_glide_evdw>
-41.3029136657715

> <r_i_glide_gscore>
-8.22608383940421

> <r_i_glide_hbond>
-0.490242995086592

> <r_i_glide_ligand_efficiency>
-0.265357543206587

> <r_i_glide_ligand_efficiency_ln>
-1.85523400497936

> <r_i_glide_ligand_efficiency_sa>
-0.833589051241109

> <r_i_glide_lipo>
-3.60849044831582

> <r_i_glide_metal>
0

> <r_i_glide_rewards>
-1.33742093682459

> <i_i_glide_confnum>
18

> <i_i_glide_lignum>
11

> <i_i_glide_posenum>
84

> <i_i_glide_rotatable_bonds>
9

> <r_i_glide_eff_state_penalty>
0

> <s_m_job_name>
glide-dock_SP_other_0535

> <r_user_dG.exp>
-10.682977

> <r_m_Molecular_weight>
448.50148

> <r_glide_shape_similarity>
0.852172136306763

> <s_m_subgroup_title>
glide-dock_SP_other_0535_lib1

> <s_m_subgroupid>
glide-dock_SP_other_0535_lib1

> <b_m_subgroup_collapsed>
0

$$$$
