18658-1
                    3D
 Schrodinger Suite 2021-2.
 47 48  0  0  1  0            999 V2000
   23.4558   12.4259   28.8698 O   0  0  0  0  0  0
   23.5227   11.0930   29.3145 C   0  0  0  0  0  0
   23.5264   11.0982   30.8320 C   0  0  0  0  0  0
   22.1961   11.3124   31.2704 O   0  0  0  0  0  0
   21.4265   10.2436   31.6704 C   0  0  0  0  0  0
   21.7786    9.0078   31.2549 N   0  0  0  0  0  0
   21.0471    7.9381   31.6208 C   0  0  0  0  0  0
   19.9151    8.0919   32.4430 C   0  0  0  0  0  0
   19.5414    9.3684   32.8707 C   0  0  0  0  0  0
   18.4133    9.4686   33.6650 N   0  0  0  0  0  0
   20.3020   10.4786   32.4709 C   0  0  0  0  0  0
   19.9544   11.8339   32.8375 C   0  0  0  0  0  0
   19.6762   12.9146   33.1183 N   0  0  0  0  0  0
   21.5169    6.6550   31.2348 N   0  0  0  0  0  0
   20.8725    5.4817   31.1348 C   0  0  0  0  0  0
   19.6601    5.3851   31.2720 O   0  0  0  0  0  0
   21.6405    4.2168   30.6961 C   0  0  0  0  0  0
   23.1527    4.2515   30.8658 C   0  0  0  0  0  0
   23.8634    3.2998   31.6426 C   0  0  0  0  0  0
   23.2095    2.2223   32.1720 O   0  0  0  0  0  0
   23.8285    1.4836   33.2088 C   0  0  0  0  0  0
   25.2521    3.4437   31.8031 C   0  0  0  0  0  0
   25.9327    4.4835   31.1736 C   0  0  0  0  0  0
   25.2409    5.4021   30.3646 C   0  0  0  0  0  0
   23.8652    5.2531   30.1919 C   0  0  0  0  0  0
   25.8320    6.4515   29.7133 O   0  0  0  0  0  0
   27.2370    6.3976   29.5661 C   0  0  0  0  0  0
   23.2350   12.4094   27.9423 H   0  0  0  0  0  0
   22.6887   10.5156   28.9121 H   0  0  0  0  0  0
   24.4410   10.6458   28.9341 H   0  0  0  0  0  0
   23.9670   10.1834   31.2375 H   0  0  0  0  0  0
   24.1572   11.9034   31.2115 H   0  0  0  0  0  0
   19.3405    7.2390   32.7744 H   0  0  0  0  0  0
   18.0042   10.3583   33.9175 H   0  0  0  0  0  0
   17.8998    8.6442   33.9440 H   0  0  0  0  0  0
   22.4779    6.6288   30.9421 H   0  0  0  0  0  0
   21.2324    3.3669   31.2408 H   0  0  0  0  0  0
   21.4175    4.0340   29.6448 H   0  0  0  0  0  0
   23.0982    0.8004   33.6420 H   0  0  0  0  0  0
   24.6464    0.8761   32.8233 H   0  0  0  0  0  0
   24.1953    2.1244   34.0123 H   0  0  0  0  0  0
   25.8378    2.7447   32.3794 H   0  0  0  0  0  0
   26.9980    4.5454   31.3277 H   0  0  0  0  0  0
   23.3588    5.9420   29.5315 H   0  0  0  0  0  0
   27.5727    7.2722   29.0088 H   0  0  0  0  0  0
   27.7548    6.3985   30.5244 H   0  0  0  0  0  0
   27.5418    5.5119   29.0063 H   0  0  0  0  0  0
  1  2  1  0  0  0
  1 28  1  0  0  0
  2  3  1  0  0  0
  2 29  1  0  0  0
  2 30  1  0  0  0
  3  4  1  0  0  0
  3 31  1  0  0  0
  3 32  1  0  0  0
  4  5  1  0  0  0
  5 11  1  0  0  0
  5  6  2  0  0  0
  6  7  1  0  0  0
  7  8  2  0  0  0
  7 14  1  0  0  0
  8  9  1  0  0  0
  8 33  1  0  0  0
  9 10  1  0  0  0
  9 11  2  0  0  0
 10 34  1  0  0  0
 10 35  1  0  0  0
 11 12  1  0  0  0
 12 13  3  0  0  0
 14 15  1  0  0  0
 14 36  1  0  0  0
 15 16  2  0  0  0
 15 17  1  0  0  0
 17 18  1  0  0  0
 17 37  1  0  0  0
 17 38  1  0  0  0
 18 25  1  0  0  0
 18 19  2  0  0  0
 19 20  1  0  0  0
 19 22  1  0  0  0
 20 21  1  0  0  0
 21 39  1  0  0  0
 21 40  1  0  0  0
 21 41  1  0  0  0
 22 23  2  0  0  0
 22 42  1  0  0  0
 23 24  1  0  0  0
 23 43  1  0  0  0
 24 25  2  0  0  0
 24 26  1  0  0  0
 25 44  1  0  0  0
 26 27  1  0  0  0
 27 45  1  0  0  0
 27 46  1  0  0  0
 27 47  1  0  0  0
M  END
> <i_m_stars>
0

> <s_m_entry_id>
3002

> <s_m_entry_name>
Jnk1_18658-1.1

> <s_m_Source_Path>
C:\Users\yujiethinkpad\Desktop\05A\JNK1

> <s_m_Source_File>
Jnk1_18658-1.sdf

> <i_m_Source_File_Index>
1

> <s_i_glide_gridfile>
glide-grid_JNK1

> <r_i_docking_score>
-7.84736458918783

> <r_i_glide_ecoul>
-10.3083477020264

> <r_i_glide_einternal>
12.225793838501

> <r_i_glide_emodel>
-60.6100503618982

> <r_i_glide_energy>
-47.9484691619873

> <r_i_glide_erotb>
0.974981300053865

> <r_i_glide_esite>
0

> <r_i_glide_evdw>
-37.6401214599609

> <r_i_glide_gscore>
-7.84736458918783

> <r_i_glide_hbond>
-0.456742460070028

> <r_i_glide_ligand_efficiency>
-0.290643132932883

> <r_i_glide_ligand_efficiency_ln>
-1.82673710244655

> <r_i_glide_ligand_efficiency_sa>
-0.871929397840736

> <r_i_glide_lipo>
-3.15634787138284

> <r_i_glide_metal>
0

> <r_i_glide_rewards>
-1.78099732948683

> <i_i_glide_confnum>
178

> <i_i_glide_lignum>
12

> <i_i_glide_posenum>
220

> <i_i_glide_rotatable_bonds>
10

> <r_i_glide_eff_state_penalty>
0

> <s_m_job_name>
glide-dock_SP_other_0535

> <r_user_dG.exp>
-9.699398

> <r_m_Molecular_weight>
372.3839

> <r_glide_shape_similarity>
0.9385746717453

> <s_m_subgroup_title>
glide-dock_SP_other_0535_lib1

> <s_m_subgroupid>
glide-dock_SP_other_0535_lib1

> <b_m_subgroup_collapsed>
0

$$$$
