18628-1
                    3D
 Schrodinger Suite 2021-2.
 41 42  0  0  1  0            999 V2000
   24.4987   10.7724   30.8817 C   0  0  0  0  0  0
   23.1698   11.1764   30.2631 C   0  0  0  0  0  0
   22.1830   11.3286   31.2675 O   0  0  0  0  0  0
   21.4273   10.2488   31.6719 C   0  0  0  0  0  0
   21.7766    9.0184   31.2509 N   0  0  0  0  0  0
   21.0533    7.9472   31.6121 C   0  0  0  0  0  0
   19.9228    8.0880   32.4354 C   0  0  0  0  0  0
   19.5476    9.3623   32.8692 C   0  0  0  0  0  0
   18.4257    9.4649   33.6699 N   0  0  0  0  0  0
   20.3066   10.4757   32.4761 C   0  0  0  0  0  0
   19.9511   11.8297   32.8368 C   0  0  0  0  0  0
   19.6683   12.9093   33.1099 N   0  0  0  0  0  0
   21.5308    6.7025   31.1514 N   0  0  0  0  0  0
   21.0242    5.4710   31.1961 C   0  0  0  0  0  0
   19.9388    5.2025   31.6708 O   0  0  0  0  0  0
   21.8079    4.3554   30.5052 C   0  0  0  0  0  0
   23.3023    4.3827   30.7784 C   0  0  0  0  0  0
   24.1836    5.3022   30.1514 C   0  0  0  0  0  0
   23.7508    6.3267   29.1268 C   0  0  0  0  0  0
   25.5529    5.2773   30.4419 C   0  0  0  0  0  0
   26.0694    4.3105   31.3040 C   0  0  0  0  0  0
   25.2140    3.3696   31.8919 C   0  0  0  0  0  0
   23.8370    3.4044   31.6378 C   0  0  0  0  0  0
   25.2698   10.7045   30.1145 H   0  0  0  0  0  0
   24.4338    9.7978   31.3671 H   0  0  0  0  0  0
   24.8169   11.4970   31.6302 H   0  0  0  0  0  0
   23.2855   12.1443   29.7750 H   0  0  0  0  0  0
   22.8588   10.4875   29.4786 H   0  0  0  0  0  0
   19.3419    7.2387   32.7601 H   0  0  0  0  0  0
   18.0202   10.3590   33.9148 H   0  0  0  0  0  0
   17.9010    8.6460   33.9470 H   0  0  0  0  0  0
   22.4093    6.7579   30.6670 H   0  0  0  0  0  0
   21.4012    3.3952   30.8259 H   0  0  0  0  0  0
   21.6211    4.4004   29.4339 H   0  0  0  0  0  0
   24.5623    6.4996   28.4194 H   0  0  0  0  0  0
   22.8918    5.9971   28.5327 H   0  0  0  0  0  0
   23.5327    7.2924   29.5934 H   0  0  0  0  0  0
   26.2280    5.9865   29.9860 H   0  0  0  0  0  0
   27.1276    4.2804   31.5161 H   0  0  0  0  0  0
   25.6181    2.6137   32.5510 H   0  0  0  0  0  0
   23.2016    2.6678   32.1034 H   0  0  0  0  0  0
  1  2  1  0  0  0
  1 24  1  0  0  0
  1 25  1  0  0  0
  1 26  1  0  0  0
  2  3  1  0  0  0
  2 27  1  0  0  0
  2 28  1  0  0  0
  3  4  1  0  0  0
  4 10  1  0  0  0
  4  5  2  0  0  0
  5  6  1  0  0  0
  6  7  2  0  0  0
  6 13  1  0  0  0
  7  8  1  0  0  0
  7 29  1  0  0  0
  8  9  1  0  0  0
  8 10  2  0  0  0
  9 30  1  0  0  0
  9 31  1  0  0  0
 10 11  1  0  0  0
 11 12  3  0  0  0
 13 14  1  0  0  0
 13 32  1  0  0  0
 14 15  2  0  0  0
 14 16  1  0  0  0
 16 17  1  0  0  0
 16 33  1  0  0  0
 16 34  1  0  0  0
 17 23  1  0  0  0
 17 18  2  0  0  0
 18 19  1  0  0  0
 18 20  1  0  0  0
 19 35  1  0  0  0
 19 36  1  0  0  0
 19 37  1  0  0  0
 20 21  2  0  0  0
 20 38  1  0  0  0
 21 22  1  0  0  0
 21 39  1  0  0  0
 22 23  2  0  0  0
 22 40  1  0  0  0
 23 41  1  0  0  0
M  END
> <i_m_stars>
0

> <s_m_entry_id>
2997

> <s_m_entry_name>
Jnk1_18628-1.1

> <s_m_Source_Path>
C:\Users\yujiethinkpad\Desktop\05A\JNK1

> <s_m_Source_File>
Jnk1_18628-1.sdf

> <i_m_Source_File_Index>
1

> <s_i_glide_gridfile>
glide-grid_JNK1

> <r_i_docking_score>
-8.06238132598362

> <r_i_glide_ecoul>
-7.53794431686401

> <r_i_glide_einternal>
7.52463579177856

> <r_i_glide_emodel>
-45.8624334613167

> <r_i_glide_energy>
-41.6501078605652

> <r_i_glide_erotb>
0.961897661652081

> <r_i_glide_esite>
0

> <r_i_glide_evdw>
-34.1121635437012

> <r_i_glide_gscore>
-8.06238132598362

> <r_i_glide_hbond>
-0.480792653888927

> <r_i_glide_ligand_efficiency>
-0.350538318521027

> <r_i_glide_ligand_efficiency_ln>
-1.94955691025485

> <r_i_glide_ligand_efficiency_sa>
-0.996884348172731

> <r_i_glide_lipo>
-3.47475523602393

> <r_i_glide_metal>
0

> <r_i_glide_rewards>
-2.23243127300819

> <i_i_glide_confnum>
6

> <i_i_glide_lignum>
19

> <i_i_glide_posenum>
339

> <i_i_glide_rotatable_bonds>
6

> <r_i_glide_eff_state_penalty>
0

> <s_m_job_name>
glide-dock_SP_other_0535

> <r_user_dG.exp>
-8.702592

> <r_m_Molecular_weight>
310.35861

> <r_glide_shape_similarity>
0.854747533798218

> <s_m_subgroup_title>
glide-dock_SP_other_0535_lib1

> <s_m_subgroupid>
glide-dock_SP_other_0535_lib1

> <b_m_subgroup_collapsed>
0

$$$$
