18627-1
                    3D
 Schrodinger Suite 2021-2.
 38 39  0  0  1  0            999 V2000
   24.5008   10.7601   30.8921 C   0  0  0  0  0  0
   23.1723   11.1691   30.2692 C   0  0  0  0  0  0
   22.1850   11.3226   31.2684 O   0  0  0  0  0  0
   21.4252   10.2469   31.6698 C   0  0  0  0  0  0
   21.7758    9.0122   31.2533 N   0  0  0  0  0  0
   21.0420    7.9448   31.6143 C   0  0  0  0  0  0
   19.9128    8.0944   32.4393 C   0  0  0  0  0  0
   19.5425    9.3704   32.8701 C   0  0  0  0  0  0
   18.4161    9.4703   33.6674 N   0  0  0  0  0  0
   20.3055   10.4798   32.4765 C   0  0  0  0  0  0
   19.9563   11.8350   32.8372 C   0  0  0  0  0  0
   19.6798   12.9168   33.1114 N   0  0  0  0  0  0
   21.5070    6.6684   31.2153 N   0  0  0  0  0  0
   20.8658    5.4942   31.1238 C   0  0  0  0  0  0
   19.6552    5.3876   31.2756 O   0  0  0  0  0  0
   21.6425    4.2422   30.6873 C   0  0  0  0  0  0
   23.1467    4.3042   30.8596 C   0  0  0  0  0  0
   23.8198    3.3634   31.6603 C   0  0  0  0  0  0
   25.2140    3.4443   31.8090 C   0  0  0  0  0  0
   25.9319    4.4664   31.1666 C   0  0  0  0  0  0
   27.6423    4.5625   31.3399 Cl  0  0  0  0  0  0
   25.2679    5.3933   30.3547 C   0  0  0  0  0  0
   23.8868    5.2853   30.1764 C   0  0  0  0  0  0
   25.2783   10.7081   30.1327 H   0  0  0  0  0  0
   24.4371    9.7827   31.3706 H   0  0  0  0  0  0
   24.8244   11.4748   31.6478 H   0  0  0  0  0  0
   23.2880   12.1381   29.7867 H   0  0  0  0  0  0
   22.8676   10.4803   29.4790 H   0  0  0  0  0  0
   19.3340    7.2431   32.7718 H   0  0  0  0  0  0
   18.0038   10.3587   33.9208 H   0  0  0  0  0  0
   17.8992    8.6469   33.9422 H   0  0  0  0  0  0
   22.4616    6.6556   30.9058 H   0  0  0  0  0  0
   21.2543    3.3998   31.2651 H   0  0  0  0  0  0
   21.4107    4.0337   29.6428 H   0  0  0  0  0  0
   23.2721    2.5813   32.1709 H   0  0  0  0  0  0
   25.7292    2.7244   32.4277 H   0  0  0  0  0  0
   25.8273    6.1656   29.8467 H   0  0  0  0  0  0
   23.4012    5.9781   29.5047 H   0  0  0  0  0  0
  1  2  1  0  0  0
  1 24  1  0  0  0
  1 25  1  0  0  0
  1 26  1  0  0  0
  2  3  1  0  0  0
  2 27  1  0  0  0
  2 28  1  0  0  0
  3  4  1  0  0  0
  4 10  1  0  0  0
  4  5  2  0  0  0
  5  6  1  0  0  0
  6  7  2  0  0  0
  6 13  1  0  0  0
  7  8  1  0  0  0
  7 29  1  0  0  0
  8  9  1  0  0  0
  8 10  2  0  0  0
  9 30  1  0  0  0
  9 31  1  0  0  0
 10 11  1  0  0  0
 11 12  3  0  0  0
 13 14  1  0  0  0
 13 32  1  0  0  0
 14 15  2  0  0  0
 14 16  1  0  0  0
 16 17  1  0  0  0
 16 33  1  0  0  0
 16 34  1  0  0  0
 17 23  1  0  0  0
 17 18  2  0  0  0
 18 19  1  0  0  0
 18 35  1  0  0  0
 19 20  2  0  0  0
 19 36  1  0  0  0
 20 21  1  0  0  0
 20 22  1  0  0  0
 22 23  2  0  0  0
 22 37  1  0  0  0
 23 38  1  0  0  0
M  END
> <i_m_stars>
0

> <s_m_entry_id>
2990

> <s_m_entry_name>
Jnk1_18627-1.1

> <s_m_Source_Path>
C:\Users\yujiethinkpad\Desktop\05A\JNK1

> <s_m_Source_File>
Jnk1_18627-1.sdf

> <i_m_Source_File_Index>
1

> <s_i_glide_gridfile>
glide-grid_JNK1

> <r_i_docking_score>
-8.19913495032173

> <r_i_glide_ecoul>
-7.32165956497192

> <r_i_glide_einternal>
7.67730951309204

> <r_i_glide_emodel>
-48.7345329197568

> <r_i_glide_energy>
-42.6562733650208

> <r_i_glide_erotb>
0.687793016403273

> <r_i_glide_esite>
0

> <r_i_glide_evdw>
-35.3346138000488

> <r_i_glide_gscore>
-8.19913495032173

> <r_i_glide_hbond>
-0.479591332542303

> <r_i_glide_ligand_efficiency>
-0.356484128274858

> <r_i_glide_ligand_efficiency_ln>
-1.98262517663311

> <r_i_glide_ligand_efficiency_sa>
-1.01379344018246

> <r_i_glide_lipo>
-3.46418109896324

> <r_i_glide_metal>
0

> <r_i_glide_rewards>
-2.07817591047123

> <i_i_glide_confnum>
10

> <i_i_glide_lignum>
18

> <i_i_glide_posenum>
36

> <i_i_glide_rotatable_bonds>
6

> <r_i_glide_eff_state_penalty>
0

> <s_m_job_name>
glide-dock_SP_other_0535

> <r_user_dG.exp>
-8.483096

> <r_m_Molecular_weight>
330.77655

> <r_glide_shape_similarity>
0.86760014295578

> <s_m_subgroup_title>
glide-dock_SP_other_0535_lib1

> <s_m_subgroupid>
glide-dock_SP_other_0535_lib1

> <b_m_subgroup_collapsed>
0

$$$$
