18659-1
                    3D
 Schrodinger Suite 2021-2.
 50 51  0  0  1  0            999 V2000
   23.0449   13.5138   28.6442 C   0  0  0  0  0  0
   23.5034   13.4963   29.9963 O   0  0  0  0  0  0
   24.2321   12.3253   30.3725 C   0  0  0  0  0  0
   23.3590   11.0548   30.4407 C   0  0  0  0  0  0
   22.2261   11.3116   31.2698 O   0  0  0  0  0  0
   21.4404   10.2467   31.6696 C   0  0  0  0  0  0
   21.7820    9.0029   31.2450 N   0  0  0  0  0  0
   21.0395    7.9308   31.6030 C   0  0  0  0  0  0
   19.9067    8.0840   32.4395 C   0  0  0  0  0  0
   19.5396    9.3691   32.8703 C   0  0  0  0  0  0
   18.4114    9.4723   33.6698 N   0  0  0  0  0  0
   20.3084   10.4873   32.4754 C   0  0  0  0  0  0
   19.9558   11.8512   32.8428 C   0  0  0  0  0  0
   19.6752   12.9348   33.1210 N   0  0  0  0  0  0
   21.4751    6.6606   31.1256 N   0  0  0  0  0  0
   20.9146    5.4329   31.2230 C   0  0  0  0  0  0
   19.7917    5.2426   31.6685 O   0  0  0  0  0  0
   21.6632    4.2095   30.6434 C   0  0  0  0  0  0
   23.1810    4.2513   30.8440 C   0  0  0  0  0  0
   23.8819    3.2942   31.6401 C   0  0  0  0  0  0
   23.2078    2.2178   32.1745 O   0  0  0  0  0  0
   23.7945    1.4880   33.2495 C   0  0  0  0  0  0
   25.2841    3.4361   31.8076 C   0  0  0  0  0  0
   25.9857    4.4799   31.1778 C   0  0  0  0  0  0
   25.2989    5.4080   30.3513 C   0  0  0  0  0  0
   23.9113    5.2631   30.1734 C   0  0  0  0  0  0
   25.9046    6.4628   29.7005 O   0  0  0  0  0  0
   27.3201    6.4028   29.5437 C   0  0  0  0  0  0
   22.5795   14.4755   28.4288 H   0  0  0  0  0  0
   22.2973   12.7405   28.4694 H   0  0  0  0  0  0
   23.8712   13.3749   27.9466 H   0  0  0  0  0  0
   25.0735   12.1743   29.6948 H   0  0  0  0  0  0
   24.6631   12.5137   31.3556 H   0  0  0  0  0  0
   23.0297   10.7516   29.4462 H   0  0  0  0  0  0
   23.9702   10.2467   30.8459 H   0  0  0  0  0  0
   19.3097    7.2474   32.7641 H   0  0  0  0  0  0
   17.9962   10.3656   33.9220 H   0  0  0  0  0  0
   17.8921    8.6445   33.9486 H   0  0  0  0  0  0
   22.3577    6.6968   30.6357 H   0  0  0  0  0  0
   21.2527    3.3005   31.0826 H   0  0  0  0  0  0
   21.4512    4.1492   29.5761 H   0  0  0  0  0  0
   23.0550    0.8001   33.6593 H   0  0  0  0  0  0
   24.6407    0.8915   32.9075 H   0  0  0  0  0  0
   24.1155    2.1498   34.0549 H   0  0  0  0  0  0
   25.8546    2.7359   32.3974 H   0  0  0  0  0  0
   27.0499    4.5439   31.3415 H   0  0  0  0  0  0
   23.4115    5.9524   29.5099 H   0  0  0  0  0  0
   27.6593    7.2760   28.9868 H   0  0  0  0  0  0
   27.8429    6.3988   30.5000 H   0  0  0  0  0  0
   27.6127    5.5151   28.9812 H   0  0  0  0  0  0
  1  2  1  0  0  0
  1 29  1  0  0  0
  1 30  1  0  0  0
  1 31  1  0  0  0
  2  3  1  0  0  0
  3  4  1  0  0  0
  3 32  1  0  0  0
  3 33  1  0  0  0
  4  5  1  0  0  0
  4 34  1  0  0  0
  4 35  1  0  0  0
  5  6  1  0  0  0
  6 12  1  0  0  0
  6  7  2  0  0  0
  7  8  1  0  0  0
  8  9  2  0  0  0
  8 15  1  0  0  0
  9 10  1  0  0  0
  9 36  1  0  0  0
 10 11  1  0  0  0
 10 12  2  0  0  0
 11 37  1  0  0  0
 11 38  1  0  0  0
 12 13  1  0  0  0
 13 14  3  0  0  0
 15 16  1  0  0  0
 15 39  1  0  0  0
 16 17  2  0  0  0
 16 18  1  0  0  0
 18 19  1  0  0  0
 18 40  1  0  0  0
 18 41  1  0  0  0
 19 26  1  0  0  0
 19 20  2  0  0  0
 20 21  1  0  0  0
 20 23  1  0  0  0
 21 22  1  0  0  0
 22 42  1  0  0  0
 22 43  1  0  0  0
 22 44  1  0  0  0
 23 24  2  0  0  0
 23 45  1  0  0  0
 24 25  1  0  0  0
 24 46  1  0  0  0
 25 26  2  0  0  0
 25 27  1  0  0  0
 26 47  1  0  0  0
 27 28  1  0  0  0
 28 48  1  0  0  0
 28 49  1  0  0  0
 28 50  1  0  0  0
M  END
> <i_m_stars>
0

> <s_m_entry_id>
3003

> <s_m_entry_name>
Jnk1_18659-1.1

> <s_m_Source_Path>
C:\Users\yujiethinkpad\Desktop\05A\JNK1

> <s_m_Source_File>
Jnk1_18659-1.sdf

> <i_m_Source_File_Index>
1

> <s_i_glide_gridfile>
glide-grid_JNK1

> <r_i_docking_score>
-7.82468901364597

> <r_i_glide_ecoul>
-8.7440938949585

> <r_i_glide_einternal>
11.3801889419556

> <r_i_glide_emodel>
-58.7605292756104

> <r_i_glide_energy>
-45.2554044723511

> <r_i_glide_erotb>
0.912493649000088

> <r_i_glide_esite>
0

> <r_i_glide_evdw>
-36.5113105773926

> <r_i_glide_gscore>
-7.82468901364597

> <r_i_glide_hbond>
-0.484790302306442

> <r_i_glide_ligand_efficiency>
-0.279453179058785

> <r_i_glide_ligand_efficiency_ln>
-1.80616796720188

> <r_i_glide_ligand_efficiency_sa>
-0.848584440742948

> <r_i_glide_lipo>
-3.42347739731882

> <r_i_glide_metal>
0

> <r_i_glide_rewards>
-1.69173534990739

> <i_i_glide_confnum>
191

> <i_i_glide_lignum>
13

> <i_i_glide_posenum>
77

> <i_i_glide_rotatable_bonds>
10

> <r_i_glide_eff_state_penalty>
0

> <s_m_job_name>
glide-dock_SP_other_0535

> <r_user_dG.exp>
-9.465222

> <r_m_Molecular_weight>
386.41099

> <r_glide_shape_similarity>
0.940624892711639

> <s_m_subgroup_title>
glide-dock_SP_other_0535_lib1

> <s_m_subgroupid>
glide-dock_SP_other_0535_lib1

> <b_m_subgroup_collapsed>
0

$$$$
