18660-1
                    3D
 Schrodinger Suite 2021-2.
 52 53  0  0  1  0            999 V2000
   25.8461    9.4240   29.2399 C   0  0  0  0  0  0
   25.2387   11.0277   28.5517 S   0  0  0  0  0  0
   26.0174   12.1188   29.1716 O   0  0  0  0  0  0
   25.2113   10.8818   27.0833 O   0  0  0  0  0  0
   23.4974   11.0968   29.2107 C   0  0  0  0  0  0
   23.4969   11.1837   30.7482 C   0  0  0  0  0  0
   22.1854   11.3527   31.2698 O   0  0  0  0  0  0
   21.4375   10.2566   31.6698 C   0  0  0  0  0  0
   21.7978    9.0172   31.2434 N   0  0  0  0  0  0
   21.0565    7.9387   31.6018 C   0  0  0  0  0  0
   19.9212    8.0862   32.4386 C   0  0  0  0  0  0
   19.5415    9.3671   32.8695 C   0  0  0  0  0  0
   18.4114    9.4693   33.6698 N   0  0  0  0  0  0
   20.3043   10.4868   32.4744 C   0  0  0  0  0  0
   19.9527   11.8504   32.8433 C   0  0  0  0  0  0
   19.6760   12.9349   33.1205 N   0  0  0  0  0  0
   21.4940    6.6649   31.1313 N   0  0  0  0  0  0
   20.9296    5.4382   31.2274 C   0  0  0  0  0  0
   19.8058    5.2504   31.6697 O   0  0  0  0  0  0
   21.6744    4.2136   30.6456 C   0  0  0  0  0  0
   23.1922    4.2538   30.8456 C   0  0  0  0  0  0
   23.8881    3.2933   31.6399 C   0  0  0  0  0  0
   23.2088    2.2202   32.1726 O   0  0  0  0  0  0
   23.8126    1.4527   33.2120 C   0  0  0  0  0  0
   25.2875    3.4324   31.8139 C   0  0  0  0  0  0
   25.9931    4.4694   31.1849 C   0  0  0  0  0  0
   25.3172    5.3881   30.3445 C   0  0  0  0  0  0
   23.9269    5.2593   30.1713 C   0  0  0  0  0  0
   25.9479    6.4112   29.6721 O   0  0  0  0  0  0
   27.3596    6.3048   29.5088 C   0  0  0  0  0  0
   26.8712    9.2633   28.9084 H   0  0  0  0  0  0
   25.2088    8.6203   28.8726 H   0  0  0  0  0  0
   25.8299    9.4454   30.3255 H   0  0  0  0  0  0
   23.0132   11.9686   28.7721 H   0  0  0  0  0  0
   22.9551   10.2189   28.8607 H   0  0  0  0  0  0
   23.9909   10.3273   31.2047 H   0  0  0  0  0  0
   24.0735   12.0558   31.0589 H   0  0  0  0  0  0
   19.3265    7.2480   32.7655 H   0  0  0  0  0  0
   17.9993   10.3640   33.9245 H   0  0  0  0  0  0
   17.8898    8.6430   33.9461 H   0  0  0  0  0  0
   22.3830    6.6948   30.6542 H   0  0  0  0  0  0
   21.2623    3.3021   31.0763 H   0  0  0  0  0  0
   21.4607    4.1609   29.5784 H   0  0  0  0  0  0
   23.0709    0.7783   33.6391 H   0  0  0  0  0  0
   24.6200    0.8354   32.8168 H   0  0  0  0  0  0
   24.1939    2.0824   34.0184 H   0  0  0  0  0  0
   25.8559    2.7324   32.4061 H   0  0  0  0  0  0
   27.0580    4.5287   31.3501 H   0  0  0  0  0  0
   23.4300    5.9494   29.5053 H   0  0  0  0  0  0
   27.7180    7.0917   28.8444 H   0  0  0  0  0  0
   27.8891    6.3998   30.4586 H   0  0  0  0  0  0
   27.6278    5.3497   29.0512 H   0  0  0  0  0  0
  1  2  1  0  0  0
  1 31  1  0  0  0
  1 32  1  0  0  0
  1 33  1  0  0  0
  2  3  2  0  0  0
  2  4  2  0  0  0
  2  5  1  0  0  0
  5  6  1  0  0  0
  5 34  1  0  0  0
  5 35  1  0  0  0
  6  7  1  0  0  0
  6 36  1  0  0  0
  6 37  1  0  0  0
  7  8  1  0  0  0
  8 14  1  0  0  0
  8  9  2  0  0  0
  9 10  1  0  0  0
 10 11  2  0  0  0
 10 17  1  0  0  0
 11 12  1  0  0  0
 11 38  1  0  0  0
 12 13  1  0  0  0
 12 14  2  0  0  0
 13 39  1  0  0  0
 13 40  1  0  0  0
 14 15  1  0  0  0
 15 16  3  0  0  0
 17 18  1  0  0  0
 17 41  1  0  0  0
 18 19  2  0  0  0
 18 20  1  0  0  0
 20 21  1  0  0  0
 20 42  1  0  0  0
 20 43  1  0  0  0
 21 28  1  0  0  0
 21 22  2  0  0  0
 22 23  1  0  0  0
 22 25  1  0  0  0
 23 24  1  0  0  0
 24 44  1  0  0  0
 24 45  1  0  0  0
 24 46  1  0  0  0
 25 26  2  0  0  0
 25 47  1  0  0  0
 26 27  1  0  0  0
 26 48  1  0  0  0
 27 28  2  0  0  0
 27 29  1  0  0  0
 28 49  1  0  0  0
 29 30  1  0  0  0
 30 50  1  0  0  0
 30 51  1  0  0  0
 30 52  1  0  0  0
M  END
> <i_m_stars>
0

> <s_m_entry_id>
2993

> <s_m_entry_name>
Jnk1_18660-1.1

> <s_m_Source_Path>
C:\Users\yujiethinkpad\Desktop\05A\JNK1

> <s_m_Source_File>
Jnk1_18660-1.sdf

> <i_m_Source_File_Index>
1

> <s_i_glide_gridfile>
glide-grid_JNK1

> <r_i_docking_score>
-8.08826945686355

> <r_i_glide_ecoul>
-11.3667020797729

> <r_i_glide_einternal>
10.5006561279297

> <r_i_glide_emodel>
-60.1161074004881

> <r_i_glide_energy>
-50.6810903549194

> <r_i_glide_erotb>
0.738560552425822

> <r_i_glide_esite>
-0.0132375329072063

> <r_i_glide_evdw>
-39.3143882751465

> <r_i_glide_gscore>
-8.08826945686355

> <r_i_glide_hbond>
-0.485740706144727

> <r_i_glide_ligand_efficiency>
-0.269608981895452

> <r_i_glide_ligand_efficiency_ln>
-1.83774294935369

> <r_i_glide_ligand_efficiency_sa>
-0.837737791492903

> <r_i_glide_lipo>
-3.12967517613984

> <r_i_glide_metal>
0

> <r_i_glide_rewards>
-1.52745186837433

> <i_i_glide_confnum>
6

> <i_i_glide_lignum>
14

> <i_i_glide_posenum>
319

> <i_i_glide_rotatable_bonds>
10

> <r_i_glide_eff_state_penalty>
0

> <s_m_job_name>
glide-dock_SP_other_0535

> <r_user_dG.exp>
-8.702592

> <r_m_Molecular_weight>
434.47439

> <r_glide_shape_similarity>
0.879772424697876

> <s_m_subgroup_title>
glide-dock_SP_other_0535_lib1

> <s_m_subgroupid>
glide-dock_SP_other_0535_lib1

> <b_m_subgroup_collapsed>
0

$$$$
