CAT-4c
                    3D
 Schrodinger Suite 2021-2.
 50 53  0  0  1  0            999 V2000
    9.8500  -10.8521    0.3973 C   0  0  0  0  0  0
   10.8427  -11.0607   -0.5384 O   0  0  0  0  0  0
   11.6936   -9.9920   -0.7341 C   0  0  0  0  0  0
   11.5128   -8.8184   -0.0118 C   0  0  0  0  0  0
   12.3697   -7.7421   -0.2089 C   0  0  0  0  0  0
   13.4075   -7.8394   -1.1283 C   0  0  0  0  0  0
   14.3324   -6.6778   -1.3411 C   0  0  0  0  0  0
   15.6514   -6.8998   -1.7187 C   0  0  0  0  0  0
   16.5083   -5.8235   -1.9158 C   0  0  0  0  0  0
   16.0462   -4.5252   -1.7353 C   0  0  0  0  0  0
   14.7273   -4.3032   -1.3577 C   0  0  0  0  0  0
   14.2286   -2.9020   -1.1629 C   0  0  1  0  0  0
   15.0558   -1.9663   -1.9937 C   0  0  0  0  0  0
   15.8440   -1.0018   -1.3773 C   0  0  0  0  0  0
   16.6104   -0.1348   -2.1471 C   0  0  0  0  0  0
   16.5886   -0.2324   -3.5334 C   0  0  0  0  0  0
   15.8004   -1.1970   -4.1498 C   0  0  0  0  0  0
   15.0340   -2.0640   -3.3800 C   0  0  0  0  0  0
   12.8022   -2.7836   -1.4645 N   0  3  0  0  0  0
   12.0944   -2.3956   -0.4044 C   0  0  0  0  0  0
   10.6491   -2.1892   -0.3927 N   0  0  0  0  0  0
   12.8961   -2.2238    0.6407 N   0  0  0  0  0  0
   12.4646   -1.8014    1.9700 C   0  0  0  0  0  0
   14.2721   -2.5102    0.2992 C   0  0  0  0  0  0
   15.2374   -2.4393    1.0581 O   0  0  0  0  0  0
   13.8703   -5.3795   -1.1606 C   0  0  0  0  0  0
   13.5883   -9.0130   -1.8506 C   0  0  0  0  0  0
   12.7313  -10.0893   -1.6535 C   0  0  0  0  0  0
    9.2342  -11.7477    0.4795 H   0  0  0  0  0  0
   10.3025  -10.6322    1.3642 H   0  0  0  0  0  0
    9.2292  -10.0115    0.0871 H   0  0  0  0  0  0
   10.7049   -8.7427    0.7040 H   0  0  0  0  0  0
   12.2290   -6.8285    0.3534 H   0  0  0  0  0  0
   16.0111   -7.9106   -1.8592 H   0  0  0  0  0  0
   17.5352   -5.9963   -2.2098 H   0  0  0  0  0  0
   16.7134   -3.6873   -1.8888 H   0  0  0  0  0  0
   15.8609   -0.9258   -0.2981 H   0  0  0  0  0  0
   17.2240    0.6161   -1.6672 H   0  0  0  0  0  0
   17.1853    0.4425   -4.1327 H   0  0  0  0  0  0
   15.7834   -1.2730   -5.2290 H   0  0  0  0  0  0
   14.4203   -2.8149   -3.8599 H   0  0  0  0  0  0
   12.4054   -2.9762   -2.3770 H   0  0  0  0  0  0
   10.0972   -2.3461   -1.2540 H   0  0  0  0  0  0
   13.3292   -1.7430    2.6311 H   0  0  0  0  0  0
   11.9908   -0.8219    1.9040 H   0  0  0  0  0  0
   11.7516   -2.5238    2.3672 H   0  0  0  0  0  0
   12.8434   -5.2067   -0.8666 H   0  0  0  0  0  0
   14.3962   -9.0887   -2.5664 H   0  0  0  0  0  0
   12.8721  -11.0030   -2.2158 H   0  0  0  0  0  0
   10.1766   -1.8861    0.4768 H   0  0  0  0  0  0
  1  2  1  0  0  0
  1 29  1  0  0  0
  1 30  1  0  0  0
  1 31  1  0  0  0
  2  3  1  0  0  0
  3  4  2  0  0  0
  3 28  1  0  0  0
  4  5  1  0  0  0
  4 32  1  0  0  0
  5  6  2  0  0  0
  5 33  1  0  0  0
  6  7  1  0  0  0
  6 27  1  0  0  0
  7  8  2  0  0  0
  7 26  1  0  0  0
  8  9  1  0  0  0
  8 34  1  0  0  0
  9 10  2  0  0  0
  9 35  1  0  0  0
 10 11  1  0  0  0
 10 36  1  0  0  0
 11 12  1  0  0  0
 11 26  2  0  0  0
 12 13  1  0  0  0
 12 19  1  0  0  0
 12 24  1  0  0  0
 13 14  2  0  0  0
 13 18  1  0  0  0
 14 15  1  0  0  0
 14 37  1  0  0  0
 15 16  2  0  0  0
 15 38  1  0  0  0
 16 17  1  0  0  0
 16 39  1  0  0  0
 17 18  2  0  0  0
 17 40  1  0  0  0
 18 41  1  0  0  0
 19 20  2  0  0  0
 19 42  1  0  0  0
 20 21  1  0  0  0
 20 22  1  0  0  0
 21 43  1  0  0  0
 21 50  1  0  0  0
 22 23  1  0  0  0
 22 24  1  0  0  0
 23 44  1  0  0  0
 23 45  1  0  0  0
 23 46  1  0  0  0
 24 25  2  0  0  0
 26 47  1  0  0  0
 27 28  2  0  0  0
 27 48  1  0  0  0
 28 49  1  0  0  0
M  CHG  1  19   1
M  END
> <s_m_entry_id>
1321

> <s_m_entry_name>
Bace_CAT-4c.1

> <s_m_Source_Path>
C:\Users\yujiethinkpad\Desktop\05A\BACE

> <s_m_Source_File>
Bace_CAT-4c.sdf

> <i_m_Source_File_Index>
1

> <s_m_job_name>
align_ligands_10

> <r_user_dG.exp>
-7.853

> <r_m_Molecular_weight>
372.45069

> <i_phase_Input_Structure_Number>
10

> <i_phase_Structure_Number>
10

> <i_phase_Reference_Structure>
36

> <s_phase_Core_SMARTS>
a1aaaaa1A2(A(=A)AA=[A]2)a3aa(aaa3)-a4aaaaa4

> <r_phase_Similarity_to_Reference>
0.767930919047459

> <s_phase_Alignment_Method>
flexible least-squares core

> <s_phase_Alignment_Reason>
stereochemistry change

> <s_m_subgroup_title>
align_ligands_10

> <s_m_subgroupid>
align_ligands_10

> <b_m_subgroup_collapsed>
0

$$$$
