CAT-24
                    3D
 Schrodinger Suite 2021-2.
 47 50  0  0  1  0            999 V2000
    8.4522   -8.4330    3.0537 C   0  0  0  0  0  0
    9.5070   -8.5457    1.9932 C   0  0  0  0  0  0
   10.3679   -8.6362    1.1320 C   0  0  0  0  0  0
   11.4268   -8.7439    0.0750 C   0  0  0  0  0  0
   11.4915   -9.8742   -0.7380 C   0  0  0  0  0  0
   12.4316  -10.0147   -1.7063 N   0  0  0  0  0  0
   13.3271   -9.0057   -1.8675 C   0  0  0  0  0  0
   13.3231   -7.8470   -1.0921 C   0  0  0  0  0  0
   14.3405   -6.7688   -1.3207 C   0  0  0  0  0  0
   15.6038   -7.0956   -1.7993 C   0  0  0  0  0  0
   16.5465   -6.0965   -2.0111 C   0  0  0  0  0  0
   16.2260   -4.7707   -1.7444 C   0  0  0  0  0  0
   14.9627   -4.4440   -1.2659 C   0  0  0  0  0  0
   14.6167   -3.0131   -0.9781 C   0  0  1  0  0  0
   15.8339   -2.1618   -1.1872 C   0  0  0  0  0  0
   16.0926   -1.5823   -2.5595 C   0  0  0  0  0  0
   15.6559   -0.6798   -1.4278 C   0  0  0  0  0  0
   13.4845   -2.5531   -1.7819 N   0  3  0  0  0  0
   12.4496   -2.1840   -1.0283 C   0  0  0  0  0  0
   11.1783   -1.6810   -1.5406 N   0  0  0  0  0  0
   12.7434   -2.3405    0.2576 N   0  0  0  0  0  0
   11.8452   -2.0359    1.3676 C   0  0  0  0  0  0
   14.0829   -2.8579    0.4305 C   0  0  0  0  0  0
   14.6321   -3.1045    1.5031 O   0  0  0  0  0  0
   14.0200   -5.4430   -1.0541 C   0  0  0  0  0  0
   12.3524   -7.7156   -0.1014 C   0  0  0  0  0  0
    7.5006   -8.7893    2.6590 H   0  0  0  0  0  0
    8.7371   -9.0370    3.9152 H   0  0  0  0  0  0
    8.3522   -7.3910    3.3575 H   0  0  0  0  0  0
   10.7807  -10.6828   -0.6151 H   0  0  0  0  0  0
   14.0706   -9.1344   -2.6450 H   0  0  0  0  0  0
   15.8534   -8.1278   -2.0069 H   0  0  0  0  0  0
   17.5300   -6.3510   -2.3836 H   0  0  0  0  0  0
   16.9599   -3.9930   -1.9093 H   0  0  0  0  0  0
   16.6827   -2.5007   -0.5893 H   0  0  0  0  0  0
   17.1219   -1.5170   -2.9189 H   0  0  0  0  0  0
   15.3868   -1.7979   -3.3645 H   0  0  0  0  0  0
   14.6454   -0.2658   -1.4435 H   0  0  0  0  0  0
   16.3804    0.0151   -0.9978 H   0  0  0  0  0  0
   13.4937   -2.5216   -2.7949 H   0  0  0  0  0  0
   11.0314   -1.5898   -2.5610 H   0  0  0  0  0  0
   12.3444   -2.2590    2.3106 H   0  0  0  0  0  0
   11.5777   -0.9797    1.3392 H   0  0  0  0  0  0
   10.9431   -2.6417    1.2818 H   0  0  0  0  0  0
   13.0364   -5.1886   -0.6815 H   0  0  0  0  0  0
   12.3172   -6.8312    0.5203 H   0  0  0  0  0  0
   10.4240   -1.4157   -0.8834 H   0  0  0  0  0  0
  1  2  1  0  0  0
  1 27  1  0  0  0
  1 28  1  0  0  0
  1 29  1  0  0  0
  2  3  3  0  0  0
  3  4  1  0  0  0
  4  5  2  0  0  0
  4 26  1  0  0  0
  5  6  1  0  0  0
  5 30  1  0  0  0
  6  7  2  0  0  0
  7  8  1  0  0  0
  7 31  1  0  0  0
  8  9  1  0  0  0
  8 26  2  0  0  0
  9 10  2  0  0  0
  9 25  1  0  0  0
 10 11  1  0  0  0
 10 32  1  0  0  0
 11 12  2  0  0  0
 11 33  1  0  0  0
 12 13  1  0  0  0
 12 34  1  0  0  0
 13 14  1  0  0  0
 13 25  2  0  0  0
 14 15  1  0  0  0
 14 18  1  0  0  0
 14 23  1  0  0  0
 15 16  1  0  0  0
 15 17  1  0  0  0
 15 35  1  0  0  0
 16 17  1  0  0  0
 16 36  1  0  0  0
 16 37  1  0  0  0
 17 38  1  0  0  0
 17 39  1  0  0  0
 18 19  2  0  0  0
 18 40  1  0  0  0
 19 20  1  0  0  0
 19 21  1  0  0  0
 20 41  1  0  0  0
 20 47  1  0  0  0
 21 22  1  0  0  0
 21 23  1  0  0  0
 22 42  1  0  0  0
 22 43  1  0  0  0
 22 44  1  0  0  0
 23 24  2  0  0  0
 25 45  1  0  0  0
 26 46  1  0  0  0
M  CHG  1  18   1
M  END
> <s_m_entry_id>
1318

> <s_m_entry_name>
Bace_CAT-24.1

> <s_m_Source_Path>
C:\Users\yujiethinkpad\Desktop\05A\BACE

> <s_m_Source_File>
Bace_CAT-24.sdf

> <i_m_Source_File_Index>
1

> <s_m_job_name>
align_ligands_10

> <r_user_dG.exp>
-11.35

> <r_m_Molecular_weight>
345.42772

> <i_phase_Input_Structure_Number>
7

> <i_phase_Structure_Number>
7

> <i_phase_Reference_Structure>
36

> <s_phase_Core_SMARTS>
A=A1AA=[A]A1a2aa(aaa2)-a3aaaaa3

> <r_phase_Similarity_to_Reference>
0.731818170139427

> <s_phase_Alignment_Method>
flexible least-squares core

> <s_phase_Alignment_Reason>
stereochemistry change

> <s_m_subgroup_title>
align_ligands_10

> <s_m_subgroupid>
align_ligands_10

> <b_m_subgroup_collapsed>
0

$$$$
