CAT-4l
                    3D
 Schrodinger Suite 2021-2.
 44 47  0  0  1  0            999 V2000
   12.8350   -1.9099    2.2269 C   0  0  0  0  0  0
   13.1322   -2.2874    0.8482 N   0  0  0  0  0  0
   12.2335   -2.4041   -0.1229 C   0  0  0  0  0  0
   10.8002   -2.1733    0.0318 N   0  0  0  0  0  0
   12.8314   -2.7625   -1.2583 N   0  3  0  0  0  0
   14.2769   -2.9174   -1.0963 C   0  0  2  0  0  0
   15.0427   -1.9644   -1.9654 C   0  0  0  0  0  0
   15.3858   -0.7068   -1.4834 C   0  0  0  0  0  0
   16.0954    0.1762   -2.2887 C   0  0  0  0  0  0
   16.4618   -0.1984   -3.5759 C   0  0  0  0  0  0
   16.1187   -1.4561   -4.0579 C   0  0  0  0  0  0
   15.4092   -2.3391   -3.2527 C   0  0  0  0  0  0
   14.7258   -4.3184   -1.3892 C   0  0  0  0  0  0
   15.9991   -4.5483   -1.8967 C   0  0  0  0  0  0
   16.4151   -5.8463   -2.1681 C   0  0  0  0  0  0
   15.5578   -6.9145   -1.9319 C   0  0  0  0  0  0
   14.2846   -6.6846   -1.4244 C   0  0  0  0  0  0
   13.3593   -7.8374   -1.1696 C   0  0  0  0  0  0
   12.0745   -7.6232   -0.6590 C   0  0  0  0  0  0
   11.2212   -8.6593   -0.4216 N   0  0  0  0  0  0
   11.6750   -9.9132   -0.7036 C   0  0  0  0  0  0
   12.9599  -10.1274   -1.2142 C   0  0  0  0  0  0
   13.8131   -9.0913   -1.4516 N   0  0  0  0  0  0
   13.8686   -5.3865   -1.1531 C   0  0  0  0  0  0
   14.4642   -2.5840    0.3689 C   0  0  0  0  0  0
   15.4971   -2.5597    1.0362 O   0  0  0  0  0  0
   13.7583   -1.8924    2.8059 H   0  0  0  0  0  0
   12.3778   -0.9205    2.2422 H   0  0  0  0  0  0
   12.1470   -2.6349    2.6619 H   0  0  0  0  0  0
   10.1674   -2.2868   -0.7793 H   0  0  0  0  0  0
   12.3476   -2.9123   -2.1363 H   0  0  0  0  0  0
   15.1005   -0.4152   -0.4813 H   0  0  0  0  0  0
   16.3625    1.1553   -1.9134 H   0  0  0  0  0  0
   17.0143    0.4890   -4.2029 H   0  0  0  0  0  0
   16.4040   -1.7477   -5.0601 H   0  0  0  0  0  0
   15.1420   -3.3182   -3.6279 H   0  0  0  0  0  0
   16.6665   -3.7167   -2.0806 H   0  0  0  0  0  0
   17.4064   -6.0253   -2.5632 H   0  0  0  0  0  0
   15.8817   -7.9251   -2.1432 H   0  0  0  0  0  0
   11.7265   -6.6219   -0.4393 H   0  0  0  0  0  0
   11.0072  -10.7452   -0.5197 H   0  0  0  0  0  0
   13.3078  -11.1287   -1.4339 H   0  0  0  0  0  0
   12.8773   -5.2076   -0.7580 H   0  0  0  0  0  0
   10.4169   -1.8964    0.9525 H   0  0  0  0  0  0
  1  2  1  0  0  0
  1 27  1  0  0  0
  1 28  1  0  0  0
  1 29  1  0  0  0
  2  3  1  0  0  0
  2 25  1  0  0  0
  3  4  1  0  0  0
  3  5  2  0  0  0
  4 30  1  0  0  0
  4 44  1  0  0  0
  5  6  1  0  0  0
  5 31  1  0  0  0
  6  7  1  0  0  0
  6 13  1  0  0  0
  6 25  1  0  0  0
  7  8  2  0  0  0
  7 12  1  0  0  0
  8  9  1  0  0  0
  8 32  1  0  0  0
  9 10  2  0  0  0
  9 33  1  0  0  0
 10 11  1  0  0  0
 10 34  1  0  0  0
 11 12  2  0  0  0
 11 35  1  0  0  0
 12 36  1  0  0  0
 13 14  2  0  0  0
 13 24  1  0  0  0
 14 15  1  0  0  0
 14 37  1  0  0  0
 15 16  2  0  0  0
 15 38  1  0  0  0
 16 17  1  0  0  0
 16 39  1  0  0  0
 17 18  1  0  0  0
 17 24  2  0  0  0
 18 19  2  0  0  0
 18 23  1  0  0  0
 19 20  1  0  0  0
 19 40  1  0  0  0
 20 21  2  0  0  0
 21 22  1  0  0  0
 21 41  1  0  0  0
 22 23  2  0  0  0
 22 42  1  0  0  0
 24 43  1  0  0  0
 25 26  2  0  0  0
M  CHG  1   5   1
M  END
> <s_m_entry_id>
1325

> <s_m_entry_name>
Bace_CAT-4l.1

> <s_m_Source_Path>
C:\Users\yujiethinkpad\Desktop\05A\BACE

> <s_m_Source_File>
Bace_CAT-4l.sdf

> <i_m_Source_File_Index>
1

> <s_m_job_name>
align_ligands_10

> <r_user_dG.exp>
-9.343

> <r_m_Molecular_weight>
344.39936

> <i_phase_Input_Structure_Number>
14

> <i_phase_Structure_Number>
14

> <i_phase_Reference_Structure>
36

> <s_phase_Core_SMARTS>
a1aaaaa1A2(A(=A)AA=[A]2)a3aa(aaa3)-a4aaaaa4

> <r_phase_Similarity_to_Reference>
0.824221827061763

> <s_phase_Alignment_Method>
flexible least-squares core

> <s_phase_Alignment_Reason>
stereochemistry change

> <s_m_subgroup_title>
align_ligands_10

> <s_m_subgroupid>
align_ligands_10

> <b_m_subgroup_collapsed>
0

$$$$
