CAT-13g
                    3D
 Schrodinger Suite 2021-2.
 52 55  0  0  1  0            999 V2000
   12.3407   -1.6594    1.5411 C   0  0  0  0  0  0
   12.8852   -2.1850    0.2925 N   0  0  0  0  0  0
   12.1845   -2.4044   -0.8144 C   0  0  0  0  0  0
   10.7536   -2.1549   -0.9616 N   0  0  0  0  0  0
   12.9785   -2.8853   -1.7702 N   0  3  0  0  0  0
   14.3630   -3.0250   -1.3196 C   0  0  1  0  0  0
   14.8271   -4.4505   -1.3710 C   0  0  0  0  0  0
   16.1679   -4.7371   -1.5986 C   0  0  0  0  0  0
   16.5978   -6.0579   -1.6463 C   0  0  0  0  0  0
   15.6870   -7.0921   -1.4662 C   0  0  0  0  0  0
   14.3463   -6.8055   -1.2385 C   0  0  0  0  0  0
   13.3633   -7.9218   -1.0442 C   0  0  0  0  0  0
   13.5626   -9.1524   -1.6626 C   0  0  0  0  0  0
   12.6479  -10.1871   -1.4803 C   0  0  0  0  0  0
   11.5259  -10.0003   -0.6779 C   0  0  0  0  0  0
   11.3259   -8.7708   -0.0596 C   0  0  0  0  0  0
    9.9390   -8.5256    0.9378 Cl  0  0  0  0  0  0
   12.2405   -7.7372   -0.2423 C   0  0  0  0  0  0
   13.9163   -5.4848   -1.1909 C   0  0  0  0  0  0
   15.3015   -2.1738   -2.1225 C   0  0  0  0  0  0
   15.2757   -2.6096   -3.6014 C   0  0  0  0  0  0
   16.1610   -1.7030   -4.4802 C   0  0  0  0  0  0
   15.7948   -0.2140   -4.3164 C   0  0  0  0  0  0
   15.8206    0.2218   -2.8374 C   0  0  0  0  0  0
   14.9353   -0.6848   -1.9587 C   0  0  0  0  0  0
   14.2768   -2.5350    0.1106 C   0  0  0  0  0  0
   15.1647   -2.4407    0.9566 O   0  0  0  0  0  0
   13.1377   -1.5813    2.2806 H   0  0  0  0  0  0
   11.9118   -0.6732    1.3637 H   0  0  0  0  0  0
   11.5663   -2.3313    1.9111 H   0  0  0  0  0  0
   10.2836   -2.3542   -1.8620 H   0  0  0  0  0  0
   12.6666   -3.1284   -2.7034 H   0  0  0  0  0  0
   16.8770   -3.9319   -1.7388 H   0  0  0  0  0  0
   17.6417   -6.2810   -1.8235 H   0  0  0  0  0  0
   16.0218   -8.1204   -1.5033 H   0  0  0  0  0  0
   14.4323   -9.3062   -2.2881 H   0  0  0  0  0  0
   12.8093  -11.1410   -1.9640 H   0  0  0  0  0  0
   10.8154  -10.8021   -0.5355 H   0  0  0  0  0  0
   12.0759   -6.7856    0.2426 H   0  0  0  0  0  0
   12.8724   -5.2617   -1.0137 H   0  0  0  0  0  0
   16.2965   -2.3502   -1.7095 H   0  0  0  0  0  0
   15.5992   -3.6480   -3.6909 H   0  0  0  0  0  0
   14.2486   -2.5811   -3.9702 H   0  0  0  0  0  0
   16.0730   -1.9965   -5.5276 H   0  0  0  0  0  0
   17.2091   -1.8503   -4.2130 H   0  0  0  0  0  0
   16.4776    0.4053   -4.9005 H   0  0  0  0  0  0
   14.7998   -0.0375   -4.7293 H   0  0  0  0  0  0
   16.8477    0.1933   -2.4687 H   0  0  0  0  0  0
   15.4971    1.2602   -2.7480 H   0  0  0  0  0  0
   13.8871   -0.5374   -2.2259 H   0  0  0  0  0  0
   15.0233   -0.3913   -0.9112 H   0  0  0  0  0  0
   10.2091   -1.7787   -0.1658 H   0  0  0  0  0  0
  1  2  1  0  0  0
  1 28  1  0  0  0
  1 29  1  0  0  0
  1 30  1  0  0  0
  2  3  1  0  0  0
  2 26  1  0  0  0
  3  4  1  0  0  0
  3  5  2  0  0  0
  4 31  1  0  0  0
  4 52  1  0  0  0
  5  6  1  0  0  0
  5 32  1  0  0  0
  6  7  1  0  0  0
  6 20  1  0  0  0
  6 26  1  0  0  0
  7  8  2  0  0  0
  7 19  1  0  0  0
  8  9  1  0  0  0
  8 33  1  0  0  0
  9 10  2  0  0  0
  9 34  1  0  0  0
 10 11  1  0  0  0
 10 35  1  0  0  0
 11 12  1  0  0  0
 11 19  2  0  0  0
 12 13  2  0  0  0
 12 18  1  0  0  0
 13 14  1  0  0  0
 13 36  1  0  0  0
 14 15  2  0  0  0
 14 37  1  0  0  0
 15 16  1  0  0  0
 15 38  1  0  0  0
 16 17  1  0  0  0
 16 18  2  0  0  0
 18 39  1  0  0  0
 19 40  1  0  0  0
 20 21  1  0  0  0
 20 25  1  0  0  0
 20 41  1  0  0  0
 21 22  1  0  0  0
 21 42  1  0  0  0
 21 43  1  0  0  0
 22 23  1  0  0  0
 22 44  1  0  0  0
 22 45  1  0  0  0
 23 24  1  0  0  0
 23 46  1  0  0  0
 23 47  1  0  0  0
 24 25  1  0  0  0
 24 48  1  0  0  0
 24 49  1  0  0  0
 25 50  1  0  0  0
 25 51  1  0  0  0
 26 27  2  0  0  0
M  CHG  1   5   1
M  END
> <s_m_entry_id>
1336

> <s_m_entry_name>
Bace_CAT-13g.1

> <s_m_Source_Path>
C:\Users\yujiethinkpad\Desktop\05A\BACE

> <s_m_Source_File>
Bace_CAT-13g.sdf

> <i_m_Source_File_Index>
1

> <s_m_job_name>
align_ligands_10

> <r_user_dG.exp>
-9.093

> <r_m_Molecular_weight>
382.91705

> <i_phase_Input_Structure_Number>
25

> <i_phase_Structure_Number>
25

> <i_phase_Reference_Structure>
36

> <s_phase_Core_SMARTS>
A=A1AA=[A]A1a2aa(aaa2)-a3aaaaa3

> <r_phase_Similarity_to_Reference>
0.772864648347459

> <s_phase_Alignment_Method>
flexible least-squares core

> <s_phase_Alignment_Reason>
stereochemistry change

> <s_m_subgroup_title>
align_ligands_10

> <s_m_subgroupid>
align_ligands_10

> <b_m_subgroup_collapsed>
0

$$$$
