CAT-4m
                    3D
 Schrodinger Suite 2021-2.
 48 51  0  0  1  0            999 V2000
   10.3820   -8.7983    0.9575 C   0  0  0  0  0  0
   11.5149   -8.8516   -0.0243 C   0  0  0  0  0  0
   11.7372  -10.0053   -0.7742 C   0  0  0  0  0  0
   12.7491  -10.0985   -1.6734 N   0  0  0  0  0  0
   13.5571   -9.0173   -1.8283 C   0  0  0  0  0  0
   13.3951   -7.8313   -1.1135 C   0  0  0  0  0  0
   14.3225   -6.6727   -1.3315 C   0  0  0  0  0  0
   15.6397   -6.8992   -1.7129 C   0  0  0  0  0  0
   16.4990   -5.8257   -1.9148 C   0  0  0  0  0  0
   16.0412   -4.5258   -1.7353 C   0  0  0  0  0  0
   14.7241   -4.2993   -1.3538 C   0  0  0  0  0  0
   14.2300   -2.8963   -1.1601 C   0  0  1  0  0  0
   15.0572   -1.9646   -1.9954 C   0  0  0  0  0  0
   15.8501   -1.0011   -1.3833 C   0  0  0  0  0  0
   16.6165   -0.1378   -2.1572 C   0  0  0  0  0  0
   16.5899   -0.2379   -3.5432 C   0  0  0  0  0  0
   15.7970   -1.2014   -4.1552 C   0  0  0  0  0  0
   15.0306   -2.0647   -3.3813 C   0  0  0  0  0  0
   12.8030   -2.7744   -1.4572 N   0  3  0  0  0  0
   12.0998   -2.3824   -0.3956 C   0  0  0  0  0  0
   10.6551   -2.1719   -0.3797 N   0  0  0  0  0  0
   12.9053   -2.2110    0.6465 N   0  0  0  0  0  0
   12.4793   -1.7848    1.9764 C   0  0  0  0  0  0
   14.2794   -2.5019    0.3011 C   0  0  0  0  0  0
   15.2473   -2.4323    1.0568 O   0  0  0  0  0  0
   13.8648   -5.3728   -1.1519 C   0  0  0  0  0  0
   12.3522   -7.7490   -0.1934 C   0  0  0  0  0  0
   10.3686   -7.8231    1.4442 H   0  0  0  0  0  0
    9.4394   -8.9559    0.4335 H   0  0  0  0  0  0
   10.5150   -9.5772    1.7083 H   0  0  0  0  0  0
   11.0969  -10.8713   -0.6559 H   0  0  0  0  0  0
   14.3598   -9.1090   -2.5503 H   0  0  0  0  0  0
   15.9961   -7.9112   -1.8527 H   0  0  0  0  0  0
   17.5245   -6.0020   -2.2118 H   0  0  0  0  0  0
   16.7103   -3.6900   -1.8925 H   0  0  0  0  0  0
   15.8707   -0.9231   -0.3043 H   0  0  0  0  0  0
   17.2338    0.6124   -1.6807 H   0  0  0  0  0  0
   17.1866    0.4342   -4.1457 H   0  0  0  0  0  0
   15.7763   -1.2794   -5.2343 H   0  0  0  0  0  0
   14.4133   -2.8148   -3.8578 H   0  0  0  0  0  0
   12.4027   -2.9676   -2.3682 H   0  0  0  0  0  0
   10.0999   -2.3289   -1.2389 H   0  0  0  0  0  0
   13.3462   -1.7276    2.6347 H   0  0  0  0  0  0
   12.0081   -0.8042    1.9101 H   0  0  0  0  0  0
   11.7655   -2.5045    2.3773 H   0  0  0  0  0  0
   12.8393   -5.1965   -0.8549 H   0  0  0  0  0  0
   12.1945   -6.8455    0.3799 H   0  0  0  0  0  0
   10.1863   -1.8659    0.4908 H   0  0  0  0  0  0
  1  2  1  0  0  0
  1 28  1  0  0  0
  1 29  1  0  0  0
  1 30  1  0  0  0
  2  3  2  0  0  0
  2 27  1  0  0  0
  3  4  1  0  0  0
  3 31  1  0  0  0
  4  5  2  0  0  0
  5  6  1  0  0  0
  5 32  1  0  0  0
  6  7  1  0  0  0
  6 27  2  0  0  0
  7  8  2  0  0  0
  7 26  1  0  0  0
  8  9  1  0  0  0
  8 33  1  0  0  0
  9 10  2  0  0  0
  9 34  1  0  0  0
 10 11  1  0  0  0
 10 35  1  0  0  0
 11 12  1  0  0  0
 11 26  2  0  0  0
 12 13  1  0  0  0
 12 19  1  0  0  0
 12 24  1  0  0  0
 13 14  2  0  0  0
 13 18  1  0  0  0
 14 15  1  0  0  0
 14 36  1  0  0  0
 15 16  2  0  0  0
 15 37  1  0  0  0
 16 17  1  0  0  0
 16 38  1  0  0  0
 17 18  2  0  0  0
 17 39  1  0  0  0
 18 40  1  0  0  0
 19 20  2  0  0  0
 19 41  1  0  0  0
 20 21  1  0  0  0
 20 22  1  0  0  0
 21 42  1  0  0  0
 21 48  1  0  0  0
 22 23  1  0  0  0
 22 24  1  0  0  0
 23 43  1  0  0  0
 23 44  1  0  0  0
 23 45  1  0  0  0
 24 25  2  0  0  0
 26 46  1  0  0  0
 27 47  1  0  0  0
M  CHG  1  19   1
M  END
> <s_m_entry_id>
1326

> <s_m_entry_name>
Bace_CAT-4m.1

> <s_m_Source_Path>
C:\Users\yujiethinkpad\Desktop\05A\BACE

> <s_m_Source_File>
Bace_CAT-4m.sdf

> <i_m_Source_File_Index>
1

> <s_m_job_name>
align_ligands_10

> <r_user_dG.exp>
-9.153

> <r_m_Molecular_weight>
357.43887

> <i_phase_Input_Structure_Number>
15

> <i_phase_Structure_Number>
15

> <i_phase_Reference_Structure>
36

> <s_phase_Core_SMARTS>
a1aaaaa1A2(A(=A)AA=[A]2)a3aa(aaa3)-a4aaaaa4

> <r_phase_Similarity_to_Reference>
0.794000029157744

> <s_phase_Alignment_Method>
flexible least-squares core

> <s_phase_Alignment_Reason>
stereochemistry change

> <s_m_subgroup_title>
align_ligands_10

> <s_m_subgroupid>
align_ligands_10

> <b_m_subgroup_collapsed>
0

$$$$
