CAT-4j
                    3D
 Schrodinger Suite 2021-2.
 45 48  0  0  1  0            999 V2000
   12.4766   -1.7904    1.9764 C   0  0  0  0  0  0
   12.9032   -2.2157    0.6464 N   0  0  0  0  0  0
   12.0980   -2.3868   -0.3961 C   0  0  0  0  0  0
   10.6533   -2.1768   -0.3804 N   0  0  0  0  0  0
   12.8017   -2.7781   -1.4577 N   0  3  0  0  0  0
   14.2286   -2.8998   -1.1601 C   0  0  2  0  0  0
   15.0558   -1.9674   -1.9947 C   0  0  0  0  0  0
   15.8483   -1.0041   -1.3819 C   0  0  0  0  0  0
   16.6146   -0.1401   -2.1551 C   0  0  0  0  0  0
   16.5886   -0.2396   -3.5412 C   0  0  0  0  0  0
   15.7961   -1.2030   -4.1539 C   0  0  0  0  0  0
   15.0297   -2.0669   -3.3807 C   0  0  0  0  0  0
   14.7231   -4.3026   -1.3545 C   0  0  0  0  0  0
   16.0404   -4.5285   -1.7356 C   0  0  0  0  0  0
   16.4986   -5.8282   -1.9157 C   0  0  0  0  0  0
   15.6395   -6.9020   -1.7146 C   0  0  0  0  0  0
   14.3222   -6.6761   -1.3334 C   0  0  0  0  0  0
   13.3949   -7.8351   -1.1163 C   0  0  0  0  0  0
   12.3544   -7.7405   -0.1925 C   0  0  0  0  0  0
   11.5110   -8.8352   -0.0148 C   0  0  0  0  0  0
   11.7449   -9.9825   -0.7716 C   0  0  0  0  0  0
   12.7545  -10.0880   -1.6747 N   0  0  0  0  0  0
   13.5685   -9.0148   -1.8381 C   0  0  0  0  0  0
   13.8640   -5.3764   -1.1534 C   0  0  0  0  0  0
   14.2774   -2.5061    0.3013 C   0  0  0  0  0  0
   15.2451   -2.4367    1.0573 O   0  0  0  0  0  0
   13.3433   -1.7333    2.6349 H   0  0  0  0  0  0
   12.0052   -0.8098    1.9104 H   0  0  0  0  0  0
   11.7629   -2.5104    2.3767 H   0  0  0  0  0  0
   10.0984   -2.3334   -1.2399 H   0  0  0  0  0  0
   12.4017   -2.9710   -2.3688 H   0  0  0  0  0  0
   15.8686   -0.9266   -0.3028 H   0  0  0  0  0  0
   17.2316    0.6099   -1.6781 H   0  0  0  0  0  0
   17.1852    0.4330   -4.1432 H   0  0  0  0  0  0
   15.7757   -1.2804   -5.2330 H   0  0  0  0  0  0
   14.4127   -2.8169   -3.8578 H   0  0  0  0  0  0
   16.7093   -3.6925   -1.8922 H   0  0  0  0  0  0
   17.5242   -6.0041   -2.2124 H   0  0  0  0  0  0
   15.9962   -7.9139   -1.8547 H   0  0  0  0  0  0
   12.2046   -6.8329    0.3765 H   0  0  0  0  0  0
   10.6941   -8.7973    0.6928 H   0  0  0  0  0  0
   11.1047  -10.8486   -0.6539 H   0  0  0  0  0  0
   14.3714   -9.1060   -2.5599 H   0  0  0  0  0  0
   12.8384   -5.2005   -0.8566 H   0  0  0  0  0  0
   10.1841   -1.8713    0.4901 H   0  0  0  0  0  0
  1  2  1  0  0  0
  1 27  1  0  0  0
  1 28  1  0  0  0
  1 29  1  0  0  0
  2  3  1  0  0  0
  2 25  1  0  0  0
  3  4  1  0  0  0
  3  5  2  0  0  0
  4 30  1  0  0  0
  4 45  1  0  0  0
  5  6  1  0  0  0
  5 31  1  0  0  0
  6  7  1  0  0  0
  6 13  1  0  0  0
  6 25  1  0  0  0
  7  8  2  0  0  0
  7 12  1  0  0  0
  8  9  1  0  0  0
  8 32  1  0  0  0
  9 10  2  0  0  0
  9 33  1  0  0  0
 10 11  1  0  0  0
 10 34  1  0  0  0
 11 12  2  0  0  0
 11 35  1  0  0  0
 12 36  1  0  0  0
 13 14  2  0  0  0
 13 24  1  0  0  0
 14 15  1  0  0  0
 14 37  1  0  0  0
 15 16  2  0  0  0
 15 38  1  0  0  0
 16 17  1  0  0  0
 16 39  1  0  0  0
 17 18  1  0  0  0
 17 24  2  0  0  0
 18 19  2  0  0  0
 18 23  1  0  0  0
 19 20  1  0  0  0
 19 40  1  0  0  0
 20 21  2  0  0  0
 20 41  1  0  0  0
 21 22  1  0  0  0
 21 42  1  0  0  0
 22 23  2  0  0  0
 23 43  1  0  0  0
 24 44  1  0  0  0
 25 26  2  0  0  0
M  CHG  1   5   1
M  END
> <s_m_entry_id>
1323

> <s_m_entry_name>
Bace_CAT-4j.1

> <s_m_Source_Path>
C:\Users\yujiethinkpad\Desktop\05A\BACE

> <s_m_Source_File>
Bace_CAT-4j.sdf

> <i_m_Source_File_Index>
1

> <s_m_job_name>
align_ligands_10

> <r_user_dG.exp>
-9.023

> <r_m_Molecular_weight>
343.41178

> <i_phase_Input_Structure_Number>
12

> <i_phase_Structure_Number>
12

> <i_phase_Reference_Structure>
36

> <s_phase_Core_SMARTS>
a1aaaaa1A2(A(=A)AA=[A]2)a3aa(aaa3)-a4aaaaa4

> <r_phase_Similarity_to_Reference>
0.824502133737294

> <s_phase_Alignment_Method>
flexible least-squares core

> <s_phase_Alignment_Reason>
stereochemistry change

> <s_m_subgroup_title>
align_ligands_10

> <s_m_subgroupid>
align_ligands_10

> <b_m_subgroup_collapsed>
0

$$$$
