CAT-17b
                    3D
 Schrodinger Suite 2021-2.
 47 50  0  0  1  0            999 V2000
    9.5871   -9.6257    1.1785 C   0  0  0  0  0  0
   10.4685   -8.5698    1.0656 O   0  0  0  0  0  0
   11.4270   -8.7127    0.0832 C   0  0  0  0  0  0
   11.4513   -9.8589   -0.7025 C   0  0  0  0  0  0
   12.4167  -10.0028   -1.6920 C   0  0  0  0  0  0
   13.3577   -9.0006   -1.8958 C   0  0  0  0  0  0
   13.3334   -7.8544   -1.1101 C   0  0  0  0  0  0
   14.3491   -6.7727   -1.3300 C   0  0  0  0  0  0
   15.6154   -7.0944   -1.8037 C   0  0  0  0  0  0
   16.5565   -6.0921   -2.0075 C   0  0  0  0  0  0
   16.2312   -4.7682   -1.7375 C   0  0  0  0  0  0
   14.9648   -4.4465   -1.2638 C   0  0  0  0  0  0
   14.6137   -3.0175   -0.9724 C   0  0  1  0  0  0
   15.8297   -2.1623   -1.1727 C   0  0  0  0  0  0
   16.0933   -1.5772   -2.5416 C   0  0  0  0  0  0
   15.6488   -0.6799   -1.4088 C   0  0  0  0  0  0
   13.4841   -2.5576   -1.7798 N   0  3  0  0  0  0
   12.4447   -2.1940   -1.0298 C   0  0  0  0  0  0
   11.1745   -1.6924   -1.5462 N   0  0  0  0  0  0
   12.7328   -2.3544    0.2569 N   0  0  0  0  0  0
   11.8287   -2.0562    1.3638 C   0  0  0  0  0  0
   14.0730   -2.8689    0.4342 C   0  0  0  0  0  0
   14.6177   -3.1180    1.5085 O   0  0  0  0  0  0
   14.0238   -5.4487   -1.0600 C   0  0  0  0  0  0
   12.3681   -7.7105   -0.1206 C   0  0  0  0  0  0
    8.8736   -9.4196    1.9763 H   0  0  0  0  0  0
    9.0526   -9.7549    0.2374 H   0  0  0  0  0  0
   10.1390  -10.5364    1.4110 H   0  0  0  0  0  0
   10.7187  -10.6392   -0.5439 H   0  0  0  0  0  0
   12.4356  -10.8952   -2.3037 H   0  0  0  0  0  0
   14.1093   -9.1126   -2.6661 H   0  0  0  0  0  0
   15.8687   -8.1252   -2.0139 H   0  0  0  0  0  0
   17.5424   -6.3426   -2.3763 H   0  0  0  0  0  0
   16.9638   -3.9879   -1.8962 H   0  0  0  0  0  0
   16.6765   -2.5012   -0.5720 H   0  0  0  0  0  0
   17.1240   -1.5078   -2.8960 H   0  0  0  0  0  0
   15.3918   -1.7916   -3.3508 H   0  0  0  0  0  0
   14.6373   -0.2685   -1.4277 H   0  0  0  0  0  0
   16.3695    0.0153   -0.9728 H   0  0  0  0  0  0
   13.4979   -2.5224   -2.7927 H   0  0  0  0  0  0
   11.0321   -1.5979   -2.5670 H   0  0  0  0  0  0
   12.3240   -2.2814    2.3082 H   0  0  0  0  0  0
   10.9286   -2.6640    1.2715 H   0  0  0  0  0  0
   11.5585   -1.0006    1.3379 H   0  0  0  0  0  0
   13.0378   -5.1982   -0.6912 H   0  0  0  0  0  0
   12.3492   -6.8181    0.4911 H   0  0  0  0  0  0
   10.4164   -1.4315   -0.8916 H   0  0  0  0  0  0
  1  2  1  0  0  0
  1 26  1  0  0  0
  1 27  1  0  0  0
  1 28  1  0  0  0
  2  3  1  0  0  0
  3  4  2  0  0  0
  3 25  1  0  0  0
  4  5  1  0  0  0
  4 29  1  0  0  0
  5  6  2  0  0  0
  5 30  1  0  0  0
  6  7  1  0  0  0
  6 31  1  0  0  0
  7  8  1  0  0  0
  7 25  2  0  0  0
  8  9  2  0  0  0
  8 24  1  0  0  0
  9 10  1  0  0  0
  9 32  1  0  0  0
 10 11  2  0  0  0
 10 33  1  0  0  0
 11 12  1  0  0  0
 11 34  1  0  0  0
 12 13  1  0  0  0
 12 24  2  0  0  0
 13 14  1  0  0  0
 13 17  1  0  0  0
 13 22  1  0  0  0
 14 15  1  0  0  0
 14 16  1  0  0  0
 14 35  1  0  0  0
 15 16  1  0  0  0
 15 36  1  0  0  0
 15 37  1  0  0  0
 16 38  1  0  0  0
 16 39  1  0  0  0
 17 18  2  0  0  0
 17 40  1  0  0  0
 18 19  1  0  0  0
 18 20  1  0  0  0
 19 41  1  0  0  0
 19 47  1  0  0  0
 20 21  1  0  0  0
 20 22  1  0  0  0
 21 42  1  0  0  0
 21 43  1  0  0  0
 21 44  1  0  0  0
 22 23  2  0  0  0
 24 45  1  0  0  0
 25 46  1  0  0  0
M  CHG  1  17   1
M  END
> <s_m_entry_id>
1345

> <s_m_entry_name>
Bace_CAT-17b.1

> <s_m_Source_Path>
C:\Users\yujiethinkpad\Desktop\05A\BACE

> <s_m_Source_File>
Bace_CAT-17b.sdf

> <i_m_Source_File_Index>
1

> <s_m_job_name>
align_ligands_10

> <r_user_dG.exp>
-10.023

> <r_m_Molecular_weight>
336.41724

> <i_phase_Input_Structure_Number>
34

> <i_phase_Structure_Number>
34

> <i_phase_Reference_Structure>
36

> <s_phase_Core_SMARTS>
A=A1AA=[A]A1a2aa(aaa2)-a3aaaaa3

> <r_phase_Similarity_to_Reference>
0.761991295119019

> <s_phase_Alignment_Method>
flexible least-squares core

> <s_phase_Alignment_Reason>
stereochemistry change

> <s_m_subgroup_title>
align_ligands_10

> <s_m_subgroupid>
align_ligands_10

> <b_m_subgroup_collapsed>
0

$$$$
