CAT-13m
                    3D
 Schrodinger Suite 2021-2.
 44 47  0  0  1  0            999 V2000
   12.4677   -1.7982    1.9704 C   0  0  0  0  0  0
   12.8985   -2.2209    0.6410 N   0  0  0  0  0  0
   12.0964   -2.3927   -0.4037 C   0  0  0  0  0  0
   10.6511   -2.1863   -0.3913 N   0  0  0  0  0  0
   12.8036   -2.7810   -1.4640 N   0  3  0  0  0  0
   14.2301   -2.8995   -1.1631 C   0  0  2  0  0  0
   15.0570   -1.9640   -1.9945 C   0  0  0  0  0  0
   15.8580   -0.9862   -1.4062 C   0  0  0  0  0  0
   16.6127   -0.1315   -2.1475 N   0  0  0  0  0  0
   16.5515   -0.2732   -3.4972 C   0  0  0  0  0  0
   15.8002   -1.1957   -4.1530 N   0  0  0  0  0  0
   15.0556   -2.0372   -3.3868 C   0  0  0  0  0  0
   14.7286   -4.3008   -1.3580 C   0  0  0  0  0  0
   16.0474   -4.5230   -1.7362 C   0  0  0  0  0  0
   16.5092   -5.8213   -1.9167 C   0  0  0  0  0  0
   15.6523   -6.8975   -1.7190 C   0  0  0  0  0  0
   14.3335   -6.6753   -1.3408 C   0  0  0  0  0  0
   13.4086   -7.8368   -1.1274 C   0  0  0  0  0  0
   12.3670   -7.7492   -0.2087 C   0  0  0  0  0  0
   11.5097   -8.8295   -0.0127 C   0  0  0  0  0  0
   11.6865  -10.0071   -0.7337 C   0  0  0  0  0  0
   12.7271  -10.0955   -1.6520 C   0  0  0  0  0  0
   12.9576  -11.5495   -2.5526 Cl  0  0  0  0  0  0
   13.5834   -9.0154   -1.8473 C   0  0  0  0  0  0
   13.8716   -5.3770   -1.1603 C   0  0  0  0  0  0
   14.2744   -2.5075    0.2988 C   0  0  0  0  0  0
   15.2400   -2.4366    1.0573 O   0  0  0  0  0  0
   13.3326   -1.7398    2.6312 H   0  0  0  0  0  0
   11.9940   -0.8187    1.9045 H   0  0  0  0  0  0
   11.7548   -2.5205    2.3681 H   0  0  0  0  0  0
   10.0987   -2.3432   -1.2523 H   0  0  0  0  0  0
   12.4063   -2.9737   -2.3764 H   0  0  0  0  0  0
   15.8997   -0.8815   -0.3281 H   0  0  0  0  0  0
   17.1500    0.4038   -4.0989 H   0  0  0  0  0  0
   14.4525   -2.7771   -3.9004 H   0  0  0  0  0  0
   16.7145   -3.6851   -1.8901 H   0  0  0  0  0  0
   17.5360   -5.9943   -2.2111 H   0  0  0  0  0  0
   16.0118   -7.9084   -1.8595 H   0  0  0  0  0  0
   12.2224   -6.8374    0.3561 H   0  0  0  0  0  0
   10.7023   -8.7543    0.7030 H   0  0  0  0  0  0
   11.0222  -10.8460   -0.5828 H   0  0  0  0  0  0
   14.3891   -9.0942   -2.5632 H   0  0  0  0  0  0
   12.8449   -5.2040   -0.8658 H   0  0  0  0  0  0
   10.1790   -1.8830    0.4784 H   0  0  0  0  0  0
  1  2  1  0  0  0
  1 28  1  0  0  0
  1 29  1  0  0  0
  1 30  1  0  0  0
  2  3  1  0  0  0
  2 26  1  0  0  0
  3  4  1  0  0  0
  3  5  2  0  0  0
  4 31  1  0  0  0
  4 44  1  0  0  0
  5  6  1  0  0  0
  5 32  1  0  0  0
  6  7  1  0  0  0
  6 13  1  0  0  0
  6 26  1  0  0  0
  7  8  2  0  0  0
  7 12  1  0  0  0
  8  9  1  0  0  0
  8 33  1  0  0  0
  9 10  2  0  0  0
 10 11  1  0  0  0
 10 34  1  0  0  0
 11 12  2  0  0  0
 12 35  1  0  0  0
 13 14  2  0  0  0
 13 25  1  0  0  0
 14 15  1  0  0  0
 14 36  1  0  0  0
 15 16  2  0  0  0
 15 37  1  0  0  0
 16 17  1  0  0  0
 16 38  1  0  0  0
 17 18  1  0  0  0
 17 25  2  0  0  0
 18 19  2  0  0  0
 18 24  1  0  0  0
 19 20  1  0  0  0
 19 39  1  0  0  0
 20 21  2  0  0  0
 20 40  1  0  0  0
 21 22  1  0  0  0
 21 41  1  0  0  0
 22 23  1  0  0  0
 22 24  2  0  0  0
 24 42  1  0  0  0
 25 43  1  0  0  0
 26 27  2  0  0  0
M  CHG  1   5   1
M  END
> <s_m_entry_id>
1341

> <s_m_entry_name>
Bace_CAT-13m.1

> <s_m_Source_Path>
C:\Users\yujiethinkpad\Desktop\05A\BACE

> <s_m_Source_File>
Bace_CAT-13m.sdf

> <i_m_Source_File_Index>
1

> <s_m_job_name>
align_ligands_10

> <r_user_dG.exp>
-8.763

> <r_m_Molecular_weight>
378.84439

> <i_phase_Input_Structure_Number>
30

> <i_phase_Structure_Number>
30

> <i_phase_Reference_Structure>
36

> <s_phase_Core_SMARTS>
a1aaaaa1A2(A(=A)AA=[A]2)a3aa(aaa3)-a4aaaaa4

> <r_phase_Similarity_to_Reference>
0.794570566758561

> <s_phase_Alignment_Method>
flexible least-squares core

> <s_phase_Alignment_Reason>
stereochemistry change

> <s_m_subgroup_title>
align_ligands_10

> <s_m_subgroupid>
align_ligands_10

> <b_m_subgroup_collapsed>
0

$$$$
