CAT-17f
                    3D
 Schrodinger Suite 2021-2.
 43 46  0  0  1  0            999 V2000
   11.8419   -2.0420    1.3679 C   0  0  0  0  0  0
   12.7407   -2.3457    0.2582 N   0  0  0  0  0  0
   12.4476   -2.1883   -1.0278 C   0  0  0  0  0  0
   11.1766   -1.6850   -1.5404 N   0  0  0  0  0  0
   13.4830   -2.5568   -1.7810 N   0  3  0  0  0  0
   14.6148   -3.0173   -0.9769 C   0  0  1  0  0  0
   14.9611   -4.4479   -1.2655 C   0  0  0  0  0  0
   16.2246   -4.7743   -1.7436 C   0  0  0  0  0  0
   16.5454   -6.0998   -2.0110 C   0  0  0  0  0  0
   15.6027   -7.0991   -1.8004 C   0  0  0  0  0  0
   14.3391   -6.7728   -1.3224 C   0  0  0  0  0  0
   13.3216   -7.8512   -1.0951 C   0  0  0  0  0  0
   13.3372   -9.0042   -1.8782 C   0  0  0  0  0  0
   12.4370  -10.0051   -1.7082 N   0  0  0  0  0  0
   11.5004   -9.8529   -0.7358 C   0  0  0  0  0  0
   11.4240   -8.7284    0.0848 C   0  0  0  0  0  0
   10.3645   -8.6215    1.1412 C   0  0  0  0  0  0
    9.5589   -8.5107    1.9642 N   0  0  0  0  0  0
   12.3545   -7.7082   -0.1004 C   0  0  0  0  0  0
   14.0183   -5.4472   -1.0550 C   0  0  0  0  0  0
   15.8321   -2.1658   -1.1847 C   0  0  0  0  0  0
   16.0915   -1.5853   -2.5564 C   0  0  0  0  0  0
   15.6540   -0.6836   -1.4244 C   0  0  0  0  0  0
   14.0802   -2.8631    0.4315 C   0  0  0  0  0  0
   14.6288   -3.1105    1.5042 O   0  0  0  0  0  0
   12.3405   -2.2658    2.3110 H   0  0  0  0  0  0
   11.5743   -0.9858    1.3401 H   0  0  0  0  0  0
   10.9399   -2.6478    1.2812 H   0  0  0  0  0  0
   11.0303   -1.5931   -2.5608 H   0  0  0  0  0  0
   13.4928   -2.5246   -2.7941 H   0  0  0  0  0  0
   16.9586   -3.9963   -1.9075 H   0  0  0  0  0  0
   17.5292   -6.3539   -2.3832 H   0  0  0  0  0  0
   15.8525   -8.1311   -2.0087 H   0  0  0  0  0  0
   14.0812   -9.1324   -2.6554 H   0  0  0  0  0  0
   10.7896  -10.6615   -0.6138 H   0  0  0  0  0  0
   12.3273   -6.8203    0.5167 H   0  0  0  0  0  0
   13.0345   -5.1931   -0.6828 H   0  0  0  0  0  0
   16.6805   -2.5050   -0.5866 H   0  0  0  0  0  0
   17.1209   -1.5196   -2.9152 H   0  0  0  0  0  0
   15.3862   -1.8003   -3.3621 H   0  0  0  0  0  0
   14.6435   -0.2696   -1.4403 H   0  0  0  0  0  0
   16.3782    0.0111   -0.9935 H   0  0  0  0  0  0
   10.4219   -1.4203   -0.8834 H   0  0  0  0  0  0
  1  2  1  0  0  0
  1 26  1  0  0  0
  1 27  1  0  0  0
  1 28  1  0  0  0
  2  3  1  0  0  0
  2 24  1  0  0  0
  3  4  1  0  0  0
  3  5  2  0  0  0
  4 29  1  0  0  0
  4 43  1  0  0  0
  5  6  1  0  0  0
  5 30  1  0  0  0
  6  7  1  0  0  0
  6 21  1  0  0  0
  6 24  1  0  0  0
  7  8  2  0  0  0
  7 20  1  0  0  0
  8  9  1  0  0  0
  8 31  1  0  0  0
  9 10  2  0  0  0
  9 32  1  0  0  0
 10 11  1  0  0  0
 10 33  1  0  0  0
 11 12  1  0  0  0
 11 20  2  0  0  0
 12 13  2  0  0  0
 12 19  1  0  0  0
 13 14  1  0  0  0
 13 34  1  0  0  0
 14 15  2  0  0  0
 15 16  1  0  0  0
 15 35  1  0  0  0
 16 17  1  0  0  0
 16 19  2  0  0  0
 17 18  3  0  0  0
 19 36  1  0  0  0
 20 37  1  0  0  0
 21 22  1  0  0  0
 21 23  1  0  0  0
 21 38  1  0  0  0
 22 23  1  0  0  0
 22 39  1  0  0  0
 22 40  1  0  0  0
 23 41  1  0  0  0
 23 42  1  0  0  0
 24 25  2  0  0  0
M  CHG  1   5   1
M  END
> <s_m_entry_id>
1314

> <s_m_entry_name>
Bace_CAT-17f.1

> <s_m_Source_Path>
C:\Users\yujiethinkpad\Desktop\05A\BACE

> <s_m_Source_File>
Bace_CAT-17f.sdf

> <i_m_Source_File_Index>
1

> <s_m_job_name>
align_ligands_10

> <r_user_dG.exp>
-9.423

> <r_m_Molecular_weight>
332.38821

> <i_phase_Input_Structure_Number>
3

> <i_phase_Structure_Number>
3

> <i_phase_Reference_Structure>
36

> <s_phase_Core_SMARTS>
A=A1AA=[A]A1a2aa(aaa2)-a3aaaaa3

> <r_phase_Similarity_to_Reference>
0.740459183372524

> <s_phase_Alignment_Method>
flexible least-squares core

> <s_phase_Alignment_Reason>
stereochemistry change

> <s_m_subgroup_title>
align_ligands_10

> <s_m_subgroupid>
align_ligands_10

> <b_m_subgroup_collapsed>
0

$$$$
