CAT-4o
                    3D
 Schrodinger Suite 2021-2.
 45 48  0  0  1  0            999 V2000
   12.4765   -1.7895    1.9755 C   0  0  0  0  0  0
   12.9036   -2.2146    0.6456 N   0  0  0  0  0  0
   12.0987   -2.3859   -0.3971 C   0  0  0  0  0  0
   10.6539   -2.1765   -0.3818 N   0  0  0  0  0  0
   12.8028   -2.7768   -1.4586 N   0  3  0  0  0  0
   14.2298   -2.8980   -1.1607 C   0  0  2  0  0  0
   15.0567   -1.9651   -1.9949 C   0  0  0  0  0  0
   15.8486   -1.0015   -1.3819 C   0  0  0  0  0  0
   16.6149   -0.1372   -2.1549 C   0  0  0  0  0  0
   16.5891   -0.2365   -3.5409 C   0  0  0  0  0  0
   15.7972   -1.2002   -4.1540 C   0  0  0  0  0  0
   15.0310   -2.0645   -3.3810 C   0  0  0  0  0  0
   14.7249   -4.3005   -1.3550 C   0  0  0  0  0  0
   16.0424   -4.5258   -1.7359 C   0  0  0  0  0  0
   16.5012   -5.8253   -1.9159 C   0  0  0  0  0  0
   15.6425   -6.8995   -1.7151 C   0  0  0  0  0  0
   14.3250   -6.6742   -1.3342 C   0  0  0  0  0  0
   13.3982   -7.8335   -1.1175 C   0  0  0  0  0  0
   13.5642   -9.0203   -1.8358 C   0  0  0  0  0  0
   12.7487  -10.0972   -1.6727 N   0  0  0  0  0  0
   11.7349   -9.9950   -0.7679 C   0  0  0  0  0  0
   11.5061   -8.8421   -0.0131 C   0  0  0  0  0  0
   10.4868   -8.7854    0.8741 F   0  0  0  0  0  0
   12.3526   -7.7471   -0.1936 C   0  0  0  0  0  0
   13.8662   -5.3747   -1.1542 C   0  0  0  0  0  0
   14.2780   -2.5043    0.3007 C   0  0  0  0  0  0
   15.2455   -2.4346    1.0570 O   0  0  0  0  0  0
   13.3430   -1.7321    2.6343 H   0  0  0  0  0  0
   12.0047   -0.8091    1.9095 H   0  0  0  0  0  0
   11.7631   -2.5099    2.3755 H   0  0  0  0  0  0
   10.0993   -2.3333   -1.2414 H   0  0  0  0  0  0
   12.4031   -2.9698   -2.3698 H   0  0  0  0  0  0
   15.8687   -0.9241   -0.3028 H   0  0  0  0  0  0
   17.2314    0.6131   -1.6776 H   0  0  0  0  0  0
   17.1857    0.4364   -4.1427 H   0  0  0  0  0  0
   15.7772   -1.2775   -5.2331 H   0  0  0  0  0  0
   14.4144   -2.8147   -3.8583 H   0  0  0  0  0  0
   16.7110   -3.6895   -1.8922 H   0  0  0  0  0  0
   17.5269   -6.0007   -2.2124 H   0  0  0  0  0  0
   15.9997   -7.9112   -1.8553 H   0  0  0  0  0  0
   14.3660   -9.1156   -2.5585 H   0  0  0  0  0  0
   11.0906  -10.8548   -0.6435 H   0  0  0  0  0  0
   12.1976   -6.8431    0.3777 H   0  0  0  0  0  0
   12.8405   -5.1993   -0.8577 H   0  0  0  0  0  0
   10.1844   -1.8712    0.4886 H   0  0  0  0  0  0
  1  2  1  0  0  0
  1 28  1  0  0  0
  1 29  1  0  0  0
  1 30  1  0  0  0
  2  3  1  0  0  0
  2 26  1  0  0  0
  3  4  1  0  0  0
  3  5  2  0  0  0
  4 31  1  0  0  0
  4 45  1  0  0  0
  5  6  1  0  0  0
  5 32  1  0  0  0
  6  7  1  0  0  0
  6 13  1  0  0  0
  6 26  1  0  0  0
  7  8  2  0  0  0
  7 12  1  0  0  0
  8  9  1  0  0  0
  8 33  1  0  0  0
  9 10  2  0  0  0
  9 34  1  0  0  0
 10 11  1  0  0  0
 10 35  1  0  0  0
 11 12  2  0  0  0
 11 36  1  0  0  0
 12 37  1  0  0  0
 13 14  2  0  0  0
 13 25  1  0  0  0
 14 15  1  0  0  0
 14 38  1  0  0  0
 15 16  2  0  0  0
 15 39  1  0  0  0
 16 17  1  0  0  0
 16 40  1  0  0  0
 17 18  1  0  0  0
 17 25  2  0  0  0
 18 19  2  0  0  0
 18 24  1  0  0  0
 19 20  1  0  0  0
 19 41  1  0  0  0
 20 21  2  0  0  0
 21 22  1  0  0  0
 21 42  1  0  0  0
 22 23  1  0  0  0
 22 24  2  0  0  0
 24 43  1  0  0  0
 25 44  1  0  0  0
 26 27  2  0  0  0
M  CHG  1   5   1
M  END
> <s_m_entry_id>
1328

> <s_m_entry_name>
Bace_CAT-4o.1

> <s_m_Source_Path>
C:\Users\yujiethinkpad\Desktop\05A\BACE

> <s_m_Source_File>
Bace_CAT-4o.sdf

> <i_m_Source_File_Index>
1

> <s_m_job_name>
align_ligands_10

> <r_user_dG.exp>
-9.383

> <r_m_Molecular_weight>
361.40221

> <i_phase_Input_Structure_Number>
17

> <i_phase_Structure_Number>
17

> <i_phase_Reference_Structure>
36

> <s_phase_Core_SMARTS>
a1aaaaa1A2(A(=A)AA=[A]2)a3aa(aaa3)-a4aaaaa4

> <r_phase_Similarity_to_Reference>
0.81773403549184

> <s_phase_Alignment_Method>
flexible least-squares core

> <s_phase_Alignment_Reason>
stereochemistry change

> <s_m_subgroup_title>
align_ligands_10

> <s_m_subgroupid>
align_ligands_10

> <b_m_subgroup_collapsed>
0

$$$$
