CAT-4p
                    3D
 Schrodinger Suite 2021-2.
 45 48  0  0  1  0            999 V2000
   12.4787   -1.7858    1.9762 C   0  0  0  0  0  0
   12.9049   -2.2117    0.6464 N   0  0  0  0  0  0
   12.0996   -2.3831   -0.3959 C   0  0  0  0  0  0
   10.6549   -2.1729   -0.3801 N   0  0  0  0  0  0
   12.8030   -2.7749   -1.4575 N   0  3  0  0  0  0
   14.2300   -2.8967   -1.1602 C   0  0  2  0  0  0
   15.0571   -1.9647   -1.9952 C   0  0  0  0  0  0
   15.8498   -1.0012   -1.3830 C   0  0  0  0  0  0
   16.6161   -0.1376   -2.1567 C   0  0  0  0  0  0
   16.5898   -0.2376   -3.5427 C   0  0  0  0  0  0
   15.7970   -1.2011   -4.1549 C   0  0  0  0  0  0
   15.0307   -2.0647   -3.3812 C   0  0  0  0  0  0
   14.7243   -4.2996   -1.3541 C   0  0  0  0  0  0
   16.0415   -4.5258   -1.7354 C   0  0  0  0  0  0
   16.4995   -5.8256   -1.9150 C   0  0  0  0  0  0
   15.6402   -6.8992   -1.7134 C   0  0  0  0  0  0
   14.3230   -6.6730   -1.3320 C   0  0  0  0  0  0
   13.3957   -7.8318   -1.1144 C   0  0  0  0  0  0
   13.5572   -9.0185   -1.8289 C   0  0  0  0  0  0
   12.7495  -10.0999   -1.6745 N   0  0  0  0  0  0
   11.7373  -10.0026   -0.7732 C   0  0  0  0  0  0
   11.5132   -8.8485   -0.0216 C   0  0  0  0  0  0
   10.2111   -8.7803    1.1101 Cl  0  0  0  0  0  0
   12.3527   -7.7481   -0.1936 C   0  0  0  0  0  0
   13.8650   -5.3732   -1.1524 C   0  0  0  0  0  0
   14.2791   -2.5024    0.3010 C   0  0  0  0  0  0
   15.2469   -2.4328    1.0569 O   0  0  0  0  0  0
   13.3455   -1.7285    2.6346 H   0  0  0  0  0  0
   12.0074   -0.8052    1.9100 H   0  0  0  0  0  0
   11.7650   -2.5056    2.3769 H   0  0  0  0  0  0
   10.0998   -2.3298   -1.2394 H   0  0  0  0  0  0
   12.4028   -2.9680   -2.3685 H   0  0  0  0  0  0
   15.8703   -0.9233   -0.3039 H   0  0  0  0  0  0
   17.2333    0.6125   -1.6800 H   0  0  0  0  0  0
   17.1864    0.4347   -4.1450 H   0  0  0  0  0  0
   15.7765   -1.2790   -5.2340 H   0  0  0  0  0  0
   14.4135   -2.8148   -3.8579 H   0  0  0  0  0  0
   16.7104   -3.6899   -1.8924 H   0  0  0  0  0  0
   17.5250   -6.0017   -2.2119 H   0  0  0  0  0  0
   15.9968   -7.9112   -1.8532 H   0  0  0  0  0  0
   14.3598   -9.1107   -2.5511 H   0  0  0  0  0  0
   11.0955  -10.8657   -0.6523 H   0  0  0  0  0  0
   12.1975   -6.8437    0.3781 H   0  0  0  0  0  0
   12.8395   -5.1971   -0.8555 H   0  0  0  0  0  0
   10.1859   -1.8670    0.4904 H   0  0  0  0  0  0
  1  2  1  0  0  0
  1 28  1  0  0  0
  1 29  1  0  0  0
  1 30  1  0  0  0
  2  3  1  0  0  0
  2 26  1  0  0  0
  3  4  1  0  0  0
  3  5  2  0  0  0
  4 31  1  0  0  0
  4 45  1  0  0  0
  5  6  1  0  0  0
  5 32  1  0  0  0
  6  7  1  0  0  0
  6 13  1  0  0  0
  6 26  1  0  0  0
  7  8  2  0  0  0
  7 12  1  0  0  0
  8  9  1  0  0  0
  8 33  1  0  0  0
  9 10  2  0  0  0
  9 34  1  0  0  0
 10 11  1  0  0  0
 10 35  1  0  0  0
 11 12  2  0  0  0
 11 36  1  0  0  0
 12 37  1  0  0  0
 13 14  2  0  0  0
 13 25  1  0  0  0
 14 15  1  0  0  0
 14 38  1  0  0  0
 15 16  2  0  0  0
 15 39  1  0  0  0
 16 17  1  0  0  0
 16 40  1  0  0  0
 17 18  1  0  0  0
 17 25  2  0  0  0
 18 19  2  0  0  0
 18 24  1  0  0  0
 19 20  1  0  0  0
 19 41  1  0  0  0
 20 21  2  0  0  0
 21 22  1  0  0  0
 21 42  1  0  0  0
 22 23  1  0  0  0
 22 24  2  0  0  0
 24 43  1  0  0  0
 25 44  1  0  0  0
 26 27  2  0  0  0
M  CHG  1   5   1
M  END
> <s_m_entry_id>
1329

> <s_m_entry_name>
Bace_CAT-4p.1

> <s_m_Source_Path>
C:\Users\yujiethinkpad\Desktop\05A\BACE

> <s_m_Source_File>
Bace_CAT-4p.sdf

> <i_m_Source_File_Index>
1

> <s_m_job_name>
align_ligands_10

> <r_user_dG.exp>
-10.083

> <r_m_Molecular_weight>
377.85681

> <i_phase_Input_Structure_Number>
18

> <i_phase_Structure_Number>
18

> <i_phase_Reference_Structure>
36

> <s_phase_Core_SMARTS>
a1aaaaa1A2(A(=A)AA=[A]2)a3aa(aaa3)-a4aaaaa4

> <r_phase_Similarity_to_Reference>
0.811225851470121

> <s_phase_Alignment_Method>
flexible least-squares core

> <s_phase_Alignment_Reason>
stereochemistry change

> <s_m_subgroup_title>
align_ligands_10

> <s_m_subgroupid>
align_ligands_10

> <b_m_subgroup_collapsed>
0

$$$$
