CAT-17d
                    3D
 Schrodinger Suite 2021-2.
 42 45  0  0  1  0            999 V2000
   12.8064   -1.8042    1.9847 C   0  0  0  0  0  0
   13.1239   -2.2582    0.6339 N   0  0  0  0  0  0
   12.2416   -2.4166   -0.3463 C   0  0  0  0  0  0
   10.8087   -2.1617   -0.2310 N   0  0  0  0  0  0
   12.8557   -2.8419   -1.4496 N   0  3  0  0  0  0
   14.2959   -3.0042   -1.2525 C   0  0  1  0  0  0
   14.7329   -4.4238   -1.4619 C   0  0  0  0  0  0
   16.0123   -4.6948   -1.9324 C   0  0  0  0  0  0
   16.4172   -6.0101   -2.1264 C   0  0  0  0  0  0
   15.5428   -7.0544   -1.8499 C   0  0  0  0  0  0
   14.2634   -6.7833   -1.3793 C   0  0  0  0  0  0
   13.3196   -7.9104   -1.0809 C   0  0  0  0  0  0
   12.3510   -7.7729   -0.0868 C   0  0  0  0  0  0
   11.4900   -8.8387    0.1654 C   0  0  0  0  0  0
   11.6347  -10.0016   -0.5900 C   0  0  0  0  0  0
   12.5736  -10.1489   -1.5609 N   0  0  0  0  0  0
   13.4058   -9.1033   -1.7966 C   0  0  0  0  0  0
   13.8585   -5.4680   -1.1853 C   0  0  0  0  0  0
   15.0890   -2.1077   -2.1565 C   0  0  0  0  0  0
   15.3612   -0.6861   -1.7194 C   0  0  0  0  0  0
   16.4835   -1.6990   -1.7392 C   0  0  0  0  0  0
   14.4607   -2.5950    0.1961 C   0  0  0  0  0  0
   15.4816   -2.5467    0.8805 O   0  0  0  0  0  0
   13.7192   -1.7663    2.5792 H   0  0  0  0  0  0
   12.3611   -0.8104    1.9388 H   0  0  0  0  0  0
   12.1018   -2.4971    2.4447 H   0  0  0  0  0  0
   10.1894   -2.3112   -1.0467 H   0  0  0  0  0  0
   12.3860   -3.0330   -2.3273 H   0  0  0  0  0  0
   16.6931   -3.8818   -2.1477 H   0  0  0  0  0  0
   17.4132   -6.2211   -2.4928 H   0  0  0  0  0  0
   15.8580   -8.0784   -2.0009 H   0  0  0  0  0  0
   12.2696   -6.8544    0.4786 H   0  0  0  0  0  0
   10.7272   -8.7673    0.9287 H   0  0  0  0  0  0
   10.9788  -10.8460   -0.4151 H   0  0  0  0  0  0
   14.1520   -9.2279   -2.5723 H   0  0  0  0  0  0
   12.8624   -5.2570   -0.8190 H   0  0  0  0  0  0
   14.8913   -2.3062   -3.2121 H   0  0  0  0  0  0
   14.9736   -0.3472   -0.7563 H   0  0  0  0  0  0
   15.3533    0.1071   -2.4701 H   0  0  0  0  0  0
   16.8789   -2.0666   -0.7898 H   0  0  0  0  0  0
   17.2587   -1.6123   -2.5037 H   0  0  0  0  0  0
   10.4122   -1.8316    0.6662 H   0  0  0  0  0  0
  1  2  1  0  0  0
  1 24  1  0  0  0
  1 25  1  0  0  0
  1 26  1  0  0  0
  2  3  1  0  0  0
  2 22  1  0  0  0
  3  4  1  0  0  0
  3  5  2  0  0  0
  4 27  1  0  0  0
  4 42  1  0  0  0
  5  6  1  0  0  0
  5 28  1  0  0  0
  6  7  1  0  0  0
  6 19  1  0  0  0
  6 22  1  0  0  0
  7  8  2  0  0  0
  7 18  1  0  0  0
  8  9  1  0  0  0
  8 29  1  0  0  0
  9 10  2  0  0  0
  9 30  1  0  0  0
 10 11  1  0  0  0
 10 31  1  0  0  0
 11 12  1  0  0  0
 11 18  2  0  0  0
 12 13  2  0  0  0
 12 17  1  0  0  0
 13 14  1  0  0  0
 13 32  1  0  0  0
 14 15  2  0  0  0
 14 33  1  0  0  0
 15 16  1  0  0  0
 15 34  1  0  0  0
 16 17  2  0  0  0
 17 35  1  0  0  0
 18 36  1  0  0  0
 19 20  1  0  0  0
 19 21  1  0  0  0
 19 37  1  0  0  0
 20 21  1  0  0  0
 20 38  1  0  0  0
 20 39  1  0  0  0
 21 40  1  0  0  0
 21 41  1  0  0  0
 22 23  2  0  0  0
M  CHG  1   5   1
M  END
> <s_m_entry_id>
1312

> <s_m_entry_name>
Bace_CAT-17d.1

> <s_m_Source_Path>
C:\Users\yujiethinkpad\Desktop\05A\BACE

> <s_m_Source_File>
Bace_CAT-17d.sdf

> <i_m_Source_File_Index>
1

> <s_m_job_name>
align_ligands_10

> <r_user_dG.exp>
-9.423

> <r_m_Molecular_weight>
307.37833

> <i_phase_Input_Structure_Number>
1

> <i_phase_Structure_Number>
1

> <i_phase_Reference_Structure>
36

> <s_phase_Core_SMARTS>
A=A1AA=[A]A1a2aa(aaa2)-a3aaaaa3

> <r_phase_Similarity_to_Reference>
0.73282164844089

> <s_phase_Alignment_Method>
flexible least-squares core

> <s_phase_Alignment_Reason>
stereochemistry change

> <s_m_subgroup_title>
align_ligands_10

> <s_m_subgroupid>
align_ligands_10

> <b_m_subgroup_collapsed>
0

$$$$
