@<TRIPOS>MOLECULE
57
38   40    1
SMALL
USER_CHARGES


@<TRIPOS>ATOM
      1 O1         27.5460    1.5662  -11.2420 O.3       1 UNK         0.0000 
      2 C2         27.1417    0.2930  -11.6885 C.3       1 UNK         0.0000 
      3 C3         26.5175    0.3923  -13.0762 C.3       1 UNK         0.0000 
      4 C4         25.0389    0.6092  -12.8376 C.3       1 UNK         0.0000 
      5 C5         24.8019   -0.0696  -11.4987 C.ar      1 UNK         0.0000 
      6 C6         26.0104   -0.2420  -10.8202 C.ar      1 UNK         0.0000 
      7 C7         26.0127   -0.7818   -9.5245 C.ar      1 UNK         0.0000 
      8 C8         24.7956   -1.0891   -8.9065 C.ar      1 UNK         0.0000 
      9 C9         23.6024   -0.9292   -9.5909 C.ar      1 UNK         0.0000 
     10 C10        23.5998   -0.4338  -10.9040 C.ar      1 UNK         0.0000 
     11 O11        22.4840   -0.2835  -11.6909 O.3       1 UNK         0.0000 
     12 C12        21.2455   -0.5724  -11.1935 C.ar      1 UNK         0.0000 
     13 C13        20.6764   -1.8302  -11.4013 C.ar      1 UNK         0.0000 
     14 C14        19.4221   -2.1085  -10.8691 C.ar      1 UNK         0.0000 
     15 F15        18.8546   -3.3219  -11.0584 F         1 UNK         0.0000 
     16 C16        18.7416   -1.1432  -10.1420 C.ar      1 UNK         0.0000 
     17 C17        19.2911    0.1307   -9.9727 C.ar      1 UNK         0.0000 
     18 C18        18.5770    1.1677   -9.2377 C.1       1 UNK         0.0000 
     19 C19        20.5543    0.3924  -10.4659 C.ar      1 UNK         0.0000 
     20 S20        27.5112   -1.0831   -8.6116 S.o2      1 UNK         0.0000 
     21 O21        27.2088   -2.0204   -7.5319 O.2       1 UNK         0.0000 
     22 O22        28.5710   -1.4325   -9.5653 O.2       1 UNK         0.0000 
     23 C23        27.9471    0.5775   -7.8607 C.3       1 UNK         0.0000 
     24 F24        28.0885    1.5196   -8.8246 F         1 UNK         0.0000 
     25 F25        27.0049    0.9273   -6.9820 F         1 UNK         0.0000 
     26 N26        18.0078    1.9897   -8.6610 N.1       1 UNK         0.0000 
     27 F27        29.1051    0.3677   -7.2549 F         1 UNK         0.0000 
     28 H28        28.3249    1.8309  -11.7526 H         1 UNK         0.0000 
     29 H29        27.9812   -0.4065  -11.7115 H         1 UNK         0.0000 
     30 H30        26.9660    1.2243  -13.6577 H         1 UNK         0.0000 
     31 H31        26.6903   -0.5132  -13.6228 H         1 UNK         0.0000 
     32 H32        24.4319    0.1682  -13.6370 H         1 UNK         0.0000 
     33 H33        24.7947    1.6584  -12.7761 H         1 UNK         0.0000 
     34 H34        24.7771   -1.4712   -7.8943 H         1 UNK         0.0000 
     35 H35        22.6821   -1.2262   -9.1101 H         1 UNK         0.0000 
     36 H36        21.2086   -2.5941  -11.9485 H         1 UNK         0.0000 
     37 H37        17.7930   -1.4100   -9.7040 H         1 UNK         0.0000 
     38 H38        21.0142    1.3550  -10.2678 H         1 UNK         0.0000 
@<TRIPOS>BOND
     1    1    2 1    
     2    1   28 1    
     3    2    3 1    
     4    2    6 1    
     5    2   29 1    
     6    3    4 1    
     7    3   30 1    
     8    3   31 1    
     9    4    5 1    
    10    4   32 1    
    11    4   33 1    
    12    5    6 ar   
    13    5   10 ar   
    14    6    7 ar   
    15    7    8 ar   
    16    7   20 1    
    17    8    9 ar   
    18    8   34 1    
    19    9   10 ar   
    20    9   35 1    
    21   10   11 1    
    22   11   12 1    
    23   12   13 ar   
    24   12   19 ar   
    25   13   14 ar   
    26   13   36 1    
    27   14   15 1    
    28   14   16 ar   
    29   16   17 ar   
    30   16   37 1    
    31   17   18 1    
    32   17   19 ar   
    33   18   26 3    
    34   19   38 1    
    35   20   21 2    
    36   20   22 2    
    37   20   23 1    
    38   23   24 1    
    39   23   25 1    
    40   23   27 1    
@<TRIPOS>SUBSTRUCTURE
     1 UNK         1 GROUP             0       ****    0 ROOT    
