@<TRIPOS>MOLECULE
231
38   40    1
SMALL
USER_CHARGES


@<TRIPOS>ATOM
      1 O1         27.8943    1.1788  -11.0631 O.3       1 UNK         0.0000 
      2 C2         27.1609    0.1641  -11.7029 C.3       1 UNK         0.0000 
      3 C3         26.4962    0.6274  -13.0105 C.3       1 UNK         0.0000 
      4 C4         25.0720    0.1050  -12.9974 C.3       1 UNK         0.0000 
      5 C5         24.8103   -0.1873  -11.5381 C.ar      1 UNK         0.0000 
      6 C6         26.0092   -0.2725  -10.8246 C.ar      1 UNK         0.0000 
      7 C7         26.0063   -0.6974   -9.4871 C.ar      1 UNK         0.0000 
      8 C8         24.7861   -0.9464   -8.8596 C.ar      1 UNK         0.0000 
      9 C9         23.5916   -0.8530   -9.5671 C.ar      1 UNK         0.0000 
     10 C10        23.6031   -0.5017  -10.9219 C.ar      1 UNK         0.0000 
     11 O11        22.4930   -0.4333  -11.7294 O.3       1 UNK         0.0000 
     12 C12        21.2454   -0.6638  -11.2213 C.ar      1 UNK         0.0000 
     13 C13        20.6244   -1.8866  -11.4633 C.ar      1 UNK         0.0000 
     14 C14        19.3585   -2.1311  -10.9427 C.ar      1 UNK         0.0000 
     15 F15        18.7399   -3.3039  -11.1763 F         1 UNK         0.0000 
     16 C16        18.7159   -1.1569  -10.1866 C.ar      1 UNK         0.0000 
     17 C17        19.3156    0.0868   -9.9795 C.ar      1 UNK         0.0000 
     18 C18        18.6351    1.1380   -9.2464 C.1       1 UNK         0.0000 
     19 C19        20.5951    0.3214  -10.4759 C.ar      1 UNK         0.0000 
     20 S20        27.5155   -0.9389   -8.5422 S.o2      1 UNK         0.0000 
     21 O21        27.2187   -1.8839   -7.4633 O.2       1 UNK         0.0000 
     22 O22        28.6096   -1.2396   -9.4636 O.2       1 UNK         0.0000 
     23 C23        27.8361    0.7467   -7.7905 C.3       1 UNK         0.0000 
     24 F24        26.3889    1.9565  -13.0245 F         1 UNK         0.0000 
     25 N25        18.0971    1.9749   -8.6636 N.1       1 UNK         0.0000 
     26 H26        28.5017    1.6054  -11.6875 H         1 UNK         0.0000 
     27 H27        27.8028   -0.6923  -11.9073 H         1 UNK         0.0000 
     28 H28        27.0542    0.3687  -13.9106 H         1 UNK         0.0000 
     29 H29        25.0170   -0.8251  -13.5618 H         1 UNK         0.0000 
     30 H30        24.3529    0.7937  -13.4436 H         1 UNK         0.0000 
     31 H31        24.7564   -1.2393   -7.8226 H         1 UNK         0.0000 
     32 H32        22.6707   -1.0996   -9.0644 H         1 UNK         0.0000 
     33 H33        21.1293   -2.6489  -12.0348 H         1 UNK         0.0000 
     34 H34        17.7656   -1.4057   -9.7616 H         1 UNK         0.0000 
     35 H35        21.0858    1.2560  -10.2638 H         1 UNK         0.0000 
     36 H36        28.8700    0.7613   -7.4646 H         1 UNK         0.0000 
     37 H37        27.1544    0.8944   -6.9586 H         1 UNK         0.0000 
     38 H38        27.6817    1.5165   -8.5435 H         1 UNK         0.0000 
@<TRIPOS>BOND
     1    1    2 1    
     2    1   26 1    
     3    2    3 1    
     4    2    6 1    
     5    2   27 1    
     6    3    4 1    
     7    3   24 1    
     8    3   28 1    
     9    4    5 1    
    10    4   29 1    
    11    4   30 1    
    12    5    6 ar   
    13    5   10 ar   
    14    6    7 ar   
    15    7    8 ar   
    16    7   20 1    
    17    8    9 ar   
    18    8   31 1    
    19    9   10 ar   
    20    9   32 1    
    21   10   11 1    
    22   11   12 1    
    23   12   13 ar   
    24   12   19 ar   
    25   13   14 ar   
    26   13   33 1    
    27   14   15 1    
    28   14   16 ar   
    29   16   17 ar   
    30   16   34 1    
    31   17   18 1    
    32   17   19 ar   
    33   18   25 3    
    34   19   35 1    
    35   20   21 2    
    36   20   22 2    
    37   20   23 1    
    38   23   36 1    
    39   23   37 1    
    40   23   38 1    
@<TRIPOS>SUBSTRUCTURE
     1 UNK         1 GROUP             0       ****    0 ROOT    
