@<TRIPOS>MOLECULE
235
37   39    1
SMALL
USER_CHARGES


@<TRIPOS>ATOM
      1 O1         27.5822    1.5627  -11.2551 O.3       1 UNK         0.0000 
      2 C2         27.1468    0.2863  -11.6761 C.3       1 UNK         0.0000 
      3 C3         26.5086    0.3643  -13.0642 C.3       1 UNK         0.0000 
      4 C4         25.0265    0.6075  -12.8332 C.3       1 UNK         0.0000 
      5 C5         24.7967   -0.0605  -11.4946 C.ar      1 UNK         0.0000 
      6 C6         26.0077   -0.2336  -10.8115 C.ar      1 UNK         0.0000 
      7 C7         26.0091   -0.7786   -9.5174 C.ar      1 UNK         0.0000 
      8 C8         24.7944   -1.0867   -8.9034 C.ar      1 UNK         0.0000 
      9 C9         23.5936   -0.9312   -9.5951 C.ar      1 UNK         0.0000 
     10 C10        23.5911   -0.4269  -10.8990 C.ar      1 UNK         0.0000 
     11 O11        22.4730   -0.2997  -11.6967 O.3       1 UNK         0.0000 
     12 C12        21.2211   -0.5557  -11.2088 C.ar      1 UNK         0.0000 
     13 C13        20.5807   -1.7704  -11.4636 C.ar      1 UNK         0.0000 
     14 N14        19.3293   -2.0485  -11.0244 N.ar      1 UNK         0.0000 
     15 C15        18.6868   -1.0883  -10.3158 C.ar      1 UNK         0.0000 
     16 C16        19.2441    0.1607  -10.0304 C.ar      1 UNK         0.0000 
     17 C17        18.5232    1.1702   -9.2782 C.1       1 UNK         0.0000 
     18 C18        20.5375    0.4137  -10.4764 C.ar      1 UNK         0.0000 
     19 S19        27.5181   -1.0772   -8.5972 S.o2      1 UNK         0.0000 
     20 O20        27.2199   -2.0291   -7.5251 O.2       1 UNK         0.0000 
     21 O21        28.5736   -1.4146   -9.5547 O.2       1 UNK         0.0000 
     22 C22        27.9098    0.6015   -7.8247 C.3       1 UNK         0.0000 
     23 F23        27.0599    1.2997  -13.8390 F         1 UNK         0.0000 
     24 F24        26.6397   -0.8135  -13.6733 F         1 UNK         0.0000 
     25 N25        17.9557    1.9748   -8.6688 N.1       1 UNK         0.0000 
     26 F26        29.1729    0.5500   -7.4603 F         1 UNK         0.0000 
     27 F27        27.7563    1.5773   -8.6957 F         1 UNK         0.0000 
     28 F28        27.1098    0.7930   -6.7781 F         1 UNK         0.0000 
     29 H29        28.3814    1.8217  -11.7482 H         1 UNK         0.0000 
     30 H30        27.9776   -0.4206  -11.7025 H         1 UNK         0.0000 
     31 H31        24.4121    0.1832  -13.6241 H         1 UNK         0.0000 
     32 H32        24.8083    1.6771  -12.7815 H         1 UNK         0.0000 
     33 H33        24.7762   -1.4676   -7.8938 H         1 UNK         0.0000 
     34 H34        22.6785   -1.2385   -9.1186 H         1 UNK         0.0000 
     35 H35        21.0644   -2.5457  -12.0352 H         1 UNK         0.0000 
     36 H36        17.7081   -1.3631   -9.9794 H         1 UNK         0.0000 
     37 H37        21.0111    1.3563  -10.2603 H         1 UNK         0.0000 
@<TRIPOS>BOND
     1    1    2 1    
     2    1   29 1    
     3    2    3 1    
     4    2    6 1    
     5    2   30 1    
     6    3    4 1    
     7    3   23 1    
     8    3   24 1    
     9    4    5 1    
    10    4   31 1    
    11    4   32 1    
    12    5    6 ar   
    13    5   10 ar   
    14    6    7 ar   
    15    7    8 ar   
    16    7   19 1    
    17    8    9 ar   
    18    8   33 1    
    19    9   10 ar   
    20    9   34 1    
    21   10   11 1    
    22   11   12 1    
    23   12   13 ar   
    24   12   18 ar   
    25   13   14 ar   
    26   13   35 1    
    27   14   15 ar   
    28   15   16 ar   
    29   15   36 1    
    30   16   17 1    
    31   16   18 ar   
    32   17   25 3    
    33   18   37 1    
    34   19   20 2    
    35   19   21 2    
    36   19   22 1    
    37   22   26 1    
    38   22   27 1    
    39   22   28 1    
@<TRIPOS>SUBSTRUCTURE
     1 UNK         1 GROUP             0       ****    0 ROOT    
