@<TRIPOS>MOLECULE
1
37   39    1
SMALL
USER_CHARGES


@<TRIPOS>ATOM
      1 O1         27.5742    1.5579  -11.2202 O.3       1 UNK         0.0000 
      2 C2         27.1479    0.2994  -11.6692 C.3       1 UNK         0.0000 
      3 C3         26.5267    0.4129  -13.0689 C.3       1 UNK         0.0000 
      4 C4         25.0255    0.5956  -12.8327 C.3       1 UNK         0.0000 
      5 C5         24.8103   -0.0581  -11.4965 C.ar      1 UNK         0.0000 
      6 C6         26.0181   -0.2298  -10.8141 C.ar      1 UNK         0.0000 
      7 C7         26.0198   -0.7704   -9.5145 C.ar      1 UNK         0.0000 
      8 C8         24.8035   -1.0882   -8.9011 C.ar      1 UNK         0.0000 
      9 C9         23.6009   -0.9385   -9.5957 C.ar      1 UNK         0.0000 
     10 C10        23.6036   -0.4366  -10.9003 C.ar      1 UNK         0.0000 
     11 O11        22.4827   -0.2805  -11.6905 O.3       1 UNK         0.0000 
     12 C12        21.2459   -0.5698  -11.1900 C.ar      1 UNK         0.0000 
     13 C13        20.6773   -1.8289  -11.4014 C.ar      1 UNK         0.0000 
     14 C14        19.4177   -2.1113  -10.8689 C.ar      1 UNK         0.0000 
     15 F15        18.8580   -3.3210  -11.0596 F         1 UNK         0.0000 
     16 C16        18.7347   -1.1397  -10.1326 C.ar      1 UNK         0.0000 
     17 C17        19.2914    0.1220   -9.9508 C.ar      1 UNK         0.0000 
     18 Cl18       18.4240    1.3427   -9.0840 Cl        1 UNK         0.0000 
     19 C19        20.5582    0.4039  -10.4599 C.ar      1 UNK         0.0000 
     20 S20        27.5319   -1.0654   -8.5874 S.o2      1 UNK         0.0000 
     21 O21        27.2277   -2.0226   -7.5192 O.2       1 UNK         0.0000 
     22 O22        28.5861   -1.3956   -9.5458 O.2       1 UNK         0.0000 
     23 C23        27.9385    0.6243   -7.8274 C.3       1 UNK         0.0000 
     24 F24        27.8181    1.5522   -8.7360 F         1 UNK         0.0000 
     25 F25        27.1029    0.8106   -6.7934 F         1 UNK         0.0000 
     26 H26        28.3584    1.8102  -11.7281 H         1 UNK         0.0000 
     27 H27        27.9789   -0.4080  -11.7029 H         1 UNK         0.0000 
     28 H28        26.6995   -0.5291  -13.6482 H         1 UNK         0.0000 
     29 H29        26.9532    1.2021  -13.6359 H         1 UNK         0.0000 
     30 H30        24.7973    1.6781  -12.7806 H         1 UNK         0.0000 
     31 H31        24.4358    0.1715  -13.6220 H         1 UNK         0.0000 
     32 H32        24.7794   -1.4657   -7.8911 H         1 UNK         0.0000 
     33 H33        22.6812   -1.2310   -9.1144 H         1 UNK         0.0000 
     34 H34        21.2080   -2.5850  -11.9555 H         1 UNK         0.0000 
     35 H35        17.7898   -1.3917   -9.6972 H         1 UNK         0.0000 
     36 H36        20.9983    1.3636  -10.2576 H         1 UNK         0.0000 
     37 H37        28.9678    0.5905   -7.4583 H         1 UNK         0.0000 
@<TRIPOS>BOND
     1    1    2 1    
     2    1   26 1    
     3    2    3 1    
     4    2    6 1    
     5    2   27 1    
     6    3    4 1    
     7    3   28 1    
     8    3   29 1    
     9    4    5 1    
    10    4   30 1    
    11    4   31 1    
    12    5    6 ar   
    13    5   10 ar   
    14    6    7 ar   
    15    7    8 ar   
    16    7   20 1    
    17    8    9 ar   
    18    8   32 1    
    19    9   10 ar   
    20    9   33 1    
    21   10   11 1    
    22   11   12 1    
    23   12   13 ar   
    24   12   19 ar   
    25   13   14 ar   
    26   13   34 1    
    27   14   15 1    
    28   14   16 ar   
    29   16   17 ar   
    30   16   35 1    
    31   17   18 1    
    32   17   19 ar   
    33   19   36 1    
    34   20   21 2    
    35   20   22 2    
    36   20   23 1    
    37   23   24 1    
    38   23   25 1    
    39   23   37 1    
@<TRIPOS>SUBSTRUCTURE
     1 UNK         1 GROUP             0       ****    0 ROOT    
