@<TRIPOS>MOLECULE
67
32   34    1
SMALL
USER_CHARGES


@<TRIPOS>ATOM
      1 O1         27.6053    1.5453  -11.1389 O.3       1 UNK         0.0000 
      2 C2         27.1460    0.3053  -11.6573 C.3       1 UNK         0.0000 
      3 C3         26.5192    0.3788  -13.0582 C.3       1 UNK         0.0000 
      4 C4         25.0264    0.5970  -12.8539 C.3       1 UNK         0.0000 
      5 C5         24.7883   -0.0701  -11.5149 C.ar      1 UNK         0.0000 
      6 C6         25.9960   -0.2256  -10.8222 C.ar      1 UNK         0.0000 
      7 C7         26.0002   -0.7558   -9.5268 C.ar      1 UNK         0.0000 
      8 C8         24.7931   -1.0825   -8.9108 C.ar      1 UNK         0.0000 
      9 C9         23.5922   -0.9249   -9.5980 C.ar      1 UNK         0.0000 
     10 C10        23.5873   -0.4230  -10.9073 C.ar      1 UNK         0.0000 
     11 O11        22.4670   -0.2684  -11.6890 O.3       1 UNK         0.0000 
     12 C12        21.2316   -0.5645  -11.1870 C.ar      1 UNK         0.0000 
     13 C13        20.5410    0.3964  -10.4526 C.ar      1 UNK         0.0000 
     14 C14        19.2824    0.1162   -9.9401 C.ar      1 UNK         0.0000 
     15 F15        18.6064    1.0626   -9.2523 F         1 UNK         0.0000 
     16 C16        18.7355   -1.1452  -10.1366 C.ar      1 UNK         0.0000 
     17 C17        19.4128   -2.1057  -10.8754 C.ar      1 UNK         0.0000 
     18 F18        18.8450   -3.3093  -11.0745 F         1 UNK         0.0000 
     19 C19        20.6682   -1.8203  -11.4037 C.ar      1 UNK         0.0000 
     20 F20        27.0666    1.3156  -13.8300 F         1 UNK         0.0000 
     21 F21        26.6710   -0.8011  -13.6632 F         1 UNK         0.0000 
     22 C22        27.2485   -0.9801   -8.8196 C.1       1 UNK         0.0000 
     23 N23        28.2434   -1.1601   -8.2628 N.1       1 UNK         0.0000 
     24 H24        28.3557    1.8615  -11.6733 H         1 UNK         0.0000 
     25 H25        27.9699   -0.4119  -11.6750 H         1 UNK         0.0000 
     26 H26        24.7968    1.6599  -12.7799 H         1 UNK         0.0000 
     27 H27        24.4187    0.1942  -13.6651 H         1 UNK         0.0000 
     28 H28        24.7714   -1.4809   -7.9067 H         1 UNK         0.0000 
     29 H29        22.6829   -1.2318   -9.1072 H         1 UNK         0.0000 
     30 H30        20.9775    1.3594  -10.2558 H         1 UNK         0.0000 
     31 H31        17.7995   -1.4050   -9.6932 H         1 UNK         0.0000 
     32 H32        21.2054   -2.5816  -11.9461 H         1 UNK         0.0000 
@<TRIPOS>BOND
     1    1    2 1    
     2    1   24 1    
     3    2    3 1    
     4    2    6 1    
     5    2   25 1    
     6    3    4 1    
     7    3   20 1    
     8    3   21 1    
     9    4    5 1    
    10    4   26 1    
    11    4   27 1    
    12    5    6 ar   
    13    5   10 ar   
    14    6    7 ar   
    15    7    8 ar   
    16    7   22 1    
    17    8    9 ar   
    18    8   28 1    
    19    9   10 ar   
    20    9   29 1    
    21   10   11 1    
    22   11   12 1    
    23   12   13 ar   
    24   12   19 ar   
    25   13   14 ar   
    26   13   30 1    
    27   14   15 1    
    28   14   16 ar   
    29   16   17 ar   
    30   16   31 1    
    31   17   18 1    
    32   17   19 ar   
    33   19   32 1    
    34   22   23 3    
@<TRIPOS>SUBSTRUCTURE
     1 UNK         1 GROUP             0       ****    0 ROOT    
