@<TRIPOS>MOLECULE
266
40   43    1
SMALL
USER_CHARGES


@<TRIPOS>ATOM
      1 O1         27.8850    0.9567  -11.2360 O.3       1 UNK         0.0000 
      2 C2         26.9261    0.0753  -11.8170 C.3       1 UNK         0.0000 
      3 C3         26.2094    0.6442  -13.0561 C.3       1 UNK         0.0000 
      4 C4         24.7392    0.3196  -12.9441 C.3       1 UNK         0.0000 
      5 C5         24.5470   -0.0317  -11.5054 C.ar      1 UNK         0.0000 
      6 C6         25.7726   -0.2517  -10.8650 C.ar      1 UNK         0.0000 
      7 C7         25.7777   -0.7392   -9.5446 C.ar      1 UNK         0.0000 
      8 C8         24.5645   -0.9350   -8.8805 C.ar      1 UNK         0.0000 
      9 C9         23.3575   -0.7307   -9.5431 C.ar      1 UNK         0.0000 
     10 C10        23.3449   -0.3000  -10.8665 C.ar      1 UNK         0.0000 
     11 O11        22.1962   -0.0469  -11.5824 O.3       1 UNK         0.0000 
     12 C12        21.0227   -0.6665  -11.2348 C.ar      1 UNK         0.0000 
     13 C13        20.7734   -2.0189  -11.4693 C.ar      1 UNK         0.0000 
     14 C14        19.5565   -2.5922  -11.1030 C.ar      1 UNK         0.0000 
     15 C15        18.5893   -1.8651  -10.4156 C.ar      1 UNK         0.0000 
     16 C16        18.8672   -0.5266  -10.1509 C.ar      1 UNK         0.0000 
     17 C17        20.0493    0.0994  -10.5813 C.ar      1 UNK         0.0000 
     18 S18        27.2967   -1.1713   -8.6869 S.o2      1 UNK         0.0000 
     19 O19        28.2927   -1.4686   -9.7151 O.2       1 UNK         0.0000 
     20 O20        26.9743   -2.2137   -7.7071 O.2       1 UNK         0.0000 
     21 C21        27.7762    0.4223   -7.7641 C.3       1 UNK         0.0000 
     22 F22        26.6880    0.1745  -14.2084 F         1 UNK         0.0000 
     23 F23        26.3100    1.9665  -13.0637 F         1 UNK         0.0000 
     24 F24        27.0858    0.4659   -6.6244 F         1 UNK         0.0000 
     25 F25        29.0853    0.3799   -7.5200 F         1 UNK         0.0000 
     26 F26        27.4854    1.4761   -8.5193 F         1 UNK         0.0000 
     27 F27        17.4363   -2.4330  -10.0129 F         1 UNK         0.0000 
     28 C28        19.8832    1.4504  -10.1680 C.ar      1 UNK         0.0000 
     29 N29        18.7801    1.6341   -9.4994 N.2       1 UNK         0.0000 
     30 N30        18.1820    0.4453   -9.4619 N.pl3     1 UNK         0.0000 
     31 H31        28.4717    1.3190  -11.9120 H         1 UNK         0.0000 
     32 H32        27.4183   -0.8521  -12.0998 H         1 UNK         0.0000 
     33 H33        24.0911    1.1044  -13.3289 H         1 UNK         0.0000 
     34 H34        24.5073   -0.5967  -13.4710 H         1 UNK         0.0000 
     35 H35        24.5427   -1.2805   -7.8640 H         1 UNK         0.0000 
     36 H36        22.4170   -0.9153   -9.0626 H         1 UNK         0.0000 
     37 H37        21.5226   -2.6299  -11.9472 H         1 UNK         0.0000 
     38 H38        19.3705   -3.6281  -11.3315 H         1 UNK         0.0000 
     39 H39        20.5664    2.2737  -10.2644 H         1 UNK         0.0000 
     40 H40        17.2735    0.3439   -9.0291 H         1 UNK         0.0000 
@<TRIPOS>BOND
     1    1    2 1    
     2    1   31 1    
     3    2    3 1    
     4    2    6 1    
     5    2   32 1    
     6    3    4 1    
     7    3   22 1    
     8    3   23 1    
     9    4    5 1    
    10    4   33 1    
    11    4   34 1    
    12    5    6 ar   
    13    5   10 ar   
    14    6    7 ar   
    15    7    8 ar   
    16    7   18 1    
    17    8    9 ar   
    18    8   35 1    
    19    9   10 ar   
    20    9   36 1    
    21   10   11 1    
    22   11   12 1    
    23   12   13 ar   
    24   12   17 ar   
    25   13   14 ar   
    26   13   37 1    
    27   14   15 ar   
    28   14   38 1    
    29   15   16 ar   
    30   15   27 1    
    31   16   17 ar   
    32   16   30 ar   
    33   17   28 ar   
    34   18   19 2    
    35   18   20 2    
    36   18   21 1    
    37   21   24 1    
    38   21   25 1    
    39   21   26 1    
    40   28   29 ar   
    41   28   39 1    
    42   29   30 ar   
    43   30   40 1    
@<TRIPOS>SUBSTRUCTURE
     1 UNK         1 GROUP             0       ****    0 ROOT    
