@<TRIPOS>MOLECULE
336
37   39    1
SMALL
USER_CHARGES


@<TRIPOS>ATOM
      1 O1         28.0017    1.1554  -10.7561 O.3       1 UNK         0.0000 
      2 C2         27.1887    0.2094  -11.4461 C.3       1 UNK         0.0000 
      3 C3         26.5170    0.8013  -12.6963 C.3       1 UNK         0.0000 
      4 C4         25.1920    0.0739  -12.8350 C.3       1 UNK         0.0000 
      5 C5         24.8410   -0.2394  -11.4041 C.ar      1 UNK         0.0000 
      6 C6         25.9976   -0.2708  -10.6132 C.ar      1 UNK         0.0000 
      7 C7         25.9018   -0.7012   -9.2751 C.ar      1 UNK         0.0000 
      8 C8         24.6420   -0.9417   -8.7237 C.ar      1 UNK         0.0000 
      9 C9         23.4967   -0.8363   -9.5019 C.ar      1 UNK         0.0000 
     10 C10        23.5906   -0.5071  -10.8564 C.ar      1 UNK         0.0000 
     11 O11        22.5177   -0.4372  -11.7191 O.3       1 UNK         0.0000 
     12 C12        21.2475   -0.6509  -11.2594 C.ar      1 UNK         0.0000 
     13 C13        20.6133   -1.8570  -11.5324 C.ar      1 UNK         0.0000 
     14 C14        19.3358   -2.0915  -11.0377 C.ar      1 UNK         0.0000 
     15 F15        18.7005   -3.2450  -11.3168 F         1 UNK         0.0000 
     16 C16        18.6966   -1.1280  -10.2666 C.ar      1 UNK         0.0000 
     17 C17        19.3124    0.1012  -10.0242 C.ar      1 UNK         0.0000 
     18 C18        18.6517    1.1490   -9.2706 C.1       1 UNK         0.0000 
     19 C19        20.5958    0.3258  -10.5084 C.ar      1 UNK         0.0000 
     20 S20        27.3000   -1.0274   -8.2059 S.o2      1 UNK         0.0000 
     21 O21        26.8468   -1.9518   -7.1631 O.2       1 UNK         0.0000 
     22 O22        28.4307   -1.3569   -9.0788 O.2       1 UNK         0.0000 
     23 F23        26.2251    2.0652  -12.4186 F         1 UNK         0.0000 
     24 N24        18.1329    1.9838   -8.6644 N.1       1 UNK         0.0000 
     25 F25        24.3006    0.8164  -13.4952 F         1 UNK         0.0000 
     26 N26        27.7092    0.4639   -7.4488 N.pl3     1 UNK         0.0000 
     27 H27        28.5314    1.6554  -11.3951 H         1 UNK         0.0000 
     28 H28        27.7885   -0.6501  -11.7494 H         1 UNK         0.0000 
     29 H29        27.1367    0.8148  -13.5962 H         1 UNK         0.0000 
     30 H30        25.3024   -0.8318  -13.4322 H         1 UNK         0.0000 
     31 H31        24.5459   -1.2350   -7.6890 H         1 UNK         0.0000 
     32 H32        22.5403   -1.0632   -9.0641 H         1 UNK         0.0000 
     33 H33        21.1114   -2.6124  -12.1160 H         1 UNK         0.0000 
     34 H34        17.7386   -1.3762   -9.8563 H         1 UNK         0.0000 
     35 H35        21.0990    1.2456  -10.2714 H         1 UNK         0.0000 
     36 H36        26.9316    0.7997   -6.8682 H         1 UNK         0.0000 
     37 H37        28.0360    1.1649   -8.1144 H         1 UNK         0.0000 
@<TRIPOS>BOND
     1    1    2 1    
     2    1   27 1    
     3    2    3 1    
     4    2    6 1    
     5    2   28 1    
     6    3    4 1    
     7    3   23 1    
     8    3   29 1    
     9    4    5 1    
    10    4   25 1    
    11    4   30 1    
    12    5    6 ar   
    13    5   10 ar   
    14    6    7 ar   
    15    7    8 ar   
    16    7   20 1    
    17    8    9 ar   
    18    8   31 1    
    19    9   10 ar   
    20    9   32 1    
    21   10   11 1    
    22   11   12 1    
    23   12   13 ar   
    24   12   19 ar   
    25   13   14 ar   
    26   13   33 1    
    27   14   15 1    
    28   14   16 ar   
    29   16   17 ar   
    30   16   34 1    
    31   17   18 1    
    32   17   19 ar   
    33   18   24 3    
    34   19   35 1    
    35   20   21 2    
    36   20   22 2    
    37   20   26 1    
    38   26   36 1    
    39   26   37 1    
@<TRIPOS>SUBSTRUCTURE
     1 UNK         1 GROUP             0       ****    0 ROOT    
