@<TRIPOS>MOLECULE
23
38   40    1
SMALL
USER_CHARGES


@<TRIPOS>ATOM
      1 O1         27.5798    1.5235  -11.1849 O.3       1 UNK         0.0000 
      2 C2         27.1359    0.2965  -11.6771 C.3       1 UNK         0.0000 
      3 C3         26.5177    0.4046  -13.0685 C.3       1 UNK         0.0000 
      4 C4         25.0171    0.5901  -12.8411 C.3       1 UNK         0.0000 
      5 C5         24.8195   -0.0696  -11.5047 C.ar      1 UNK         0.0000 
      6 C6         26.0204   -0.2306  -10.8289 C.ar      1 UNK         0.0000 
      7 C7         26.0077   -0.7642   -9.5085 C.ar      1 UNK         0.0000 
      8 C8         24.8269   -1.0884   -8.9088 C.ar      1 UNK         0.0000 
      9 C9         23.5995   -0.9354   -9.6045 C.ar      1 UNK         0.0000 
     10 C10        23.5962   -0.4510  -10.8982 C.ar      1 UNK         0.0000 
     11 O11        22.4844   -0.2684  -11.6800 O.3       1 UNK         0.0000 
     12 C12        21.2404   -0.5613  -11.1739 C.ar      1 UNK         0.0000 
     13 C13        20.5576    0.3996  -10.4453 C.ar      1 UNK         0.0000 
     14 C14        19.2837    0.1051   -9.9375 C.ar      1 UNK         0.0000 
     15 F15        18.6058    1.0679   -9.2497 F         1 UNK         0.0000 
     16 C16        18.7338   -1.1345  -10.1306 C.ar      1 UNK         0.0000 
     17 C17        19.4232   -2.1096  -10.8804 C.ar      1 UNK         0.0000 
     18 F18        18.8528   -3.3134  -11.0758 F         1 UNK         0.0000 
     19 C19        20.6704   -1.8200  -11.3967 C.ar      1 UNK         0.0000 
     20 S20        27.5347   -1.0647   -8.5760 S.o2      1 UNK         0.0000 
     21 O21        27.2199   -2.0185   -7.5306 O.2       1 UNK         0.0000 
     22 O22        28.5959   -1.3615   -9.5279 O.2       1 UNK         0.0000 
     23 C23        27.9440    0.6097   -7.7719 C.3       1 UNK         0.0000 
     24 F24        27.8264    1.5664   -8.6650 F         1 UNK         0.0000 
     25 F25        27.0972    0.7943   -6.7402 F         1 UNK         0.0000 
     26 O26        27.0792    1.3725  -13.8825 O.3       1 UNK         0.0000 
     27 H27        28.4196    1.7763  -11.5732 H         1 UNK         0.0000 
     28 H28        27.9878   -0.3852  -11.7231 H         1 UNK         0.0000 
     29 H29        26.6601   -0.5701  -13.6036 H         1 UNK         0.0000 
     30 H30        24.7751    1.6572  -12.7727 H         1 UNK         0.0000 
     31 H31        24.4463    0.1629  -13.6523 H         1 UNK         0.0000 
     32 H32        24.7825   -1.4708   -7.9005 H         1 UNK         0.0000 
     33 H33        22.6825   -1.2208   -9.1092 H         1 UNK         0.0000 
     34 H34        20.9920    1.3609  -10.2837 H         1 UNK         0.0000 
     35 H35        17.7876   -1.4003   -9.6966 H         1 UNK         0.0000 
     36 H36        21.2084   -2.5776  -11.9529 H         1 UNK         0.0000 
     37 H37        28.9652    0.5721   -7.4332 H         1 UNK         0.0000 
     38 H38        27.6651    1.9280  -13.3465 H         1 UNK         0.0000 
@<TRIPOS>BOND
     1    1    2 1    
     2    1   27 1    
     3    2    3 1    
     4    2    6 1    
     5    2   28 1    
     6    3    4 1    
     7    3   26 1    
     8    3   29 1    
     9    4    5 1    
    10    4   30 1    
    11    4   31 1    
    12    5    6 ar   
    13    5   10 ar   
    14    6    7 ar   
    15    7    8 ar   
    16    7   20 1    
    17    8    9 ar   
    18    8   32 1    
    19    9   10 ar   
    20    9   33 1    
    21   10   11 1    
    22   11   12 1    
    23   12   13 ar   
    24   12   19 ar   
    25   13   14 ar   
    26   13   34 1    
    27   14   15 1    
    28   14   16 ar   
    29   16   17 ar   
    30   16   35 1    
    31   17   18 1    
    32   17   19 ar   
    33   19   36 1    
    34   20   21 2    
    35   20   22 2    
    36   20   23 1    
    37   23   24 1    
    38   23   25 1    
    39   23   37 1    
    40   26   38 1    
@<TRIPOS>SUBSTRUCTURE
     1 UNK         1 GROUP             0       ****    0 ROOT    
