@<TRIPOS>MOLECULE
124
32   33    1
SMALL
USER_CHARGES


@<TRIPOS>ATOM
      1 C1         24.8310   -0.0580  -11.4927 C.ar      1 UNK         0.0000 
      2 C2         26.0235   -0.2330  -10.7891 C.ar      1 UNK         0.0000 
      3 C3         25.9987   -0.7743   -9.5096 C.ar      1 UNK         0.0000 
      4 C4         24.7856   -1.0874   -8.8994 C.ar      1 UNK         0.0000 
      5 C5         23.6010   -0.9335   -9.6065 C.ar      1 UNK         0.0000 
      6 C6         23.6090   -0.4396  -10.9170 C.ar      1 UNK         0.0000 
      7 O7         22.4819   -0.2891  -11.6902 O.3       1 UNK         0.0000 
      8 C8         21.2436   -0.5778  -11.1838 C.ar      1 UNK         0.0000 
      9 C9         20.6717   -1.8245  -11.3930 C.ar      1 UNK         0.0000 
     10 C10        19.4142   -2.1154  -10.8705 C.ar      1 UNK         0.0000 
     11 C11        18.7356   -1.1376  -10.1307 C.ar      1 UNK         0.0000 
     12 C12        19.2836    0.1166   -9.9443 C.ar      1 UNK         0.0000 
     13 Cl13       18.4182    1.3429   -9.0771 Cl        1 UNK         0.0000 
     14 C14        20.5528    0.3972  -10.4460 C.ar      1 UNK         0.0000 
     15 S15        27.5088   -1.0841   -8.6332 S.o2      1 UNK         0.0000 
     16 O16        27.2224   -2.0236   -7.5339 O.2       1 UNK         0.0000 
     17 O17        28.5286   -1.4187   -9.6099 O.2       1 UNK         0.0000 
     18 C18        27.9364    0.5884   -7.9114 C.3       1 UNK         0.0000 
     19 F19        27.0434    0.9305   -6.9901 F         1 UNK         0.0000 
     20 F20        29.1248    0.3945   -7.3800 F         1 UNK         0.0000 
     21 C21        24.8632    0.5892  -12.8609 C.3       1 UNK         0.0000 
     22 F22        18.8482   -3.3161  -11.0632 F         1 UNK         0.0000 
     23 F23        28.0161    1.4963   -8.8897 F         1 UNK         0.0000 
     24 F24        24.9720    1.8976  -12.6428 F         1 UNK         0.0000 
     25 F25        25.8923    0.1745  -13.6008 F         1 UNK         0.0000 
     26 H26        26.9738    0.0481  -11.2370 H         1 UNK         0.0000 
     27 H27        24.7621   -1.4743   -7.8944 H         1 UNK         0.0000 
     28 H28        22.6769   -1.2285   -9.1344 H         1 UNK         0.0000 
     29 H29        21.2027   -2.5903  -11.9465 H         1 UNK         0.0000 
     30 H30        17.7913   -1.4073   -9.6929 H         1 UNK         0.0000 
     31 H31        20.9858    1.3555  -10.2466 H         1 UNK         0.0000 
     32 H32        23.9655    0.4033  -13.4518 H         1 UNK         0.0000 
@<TRIPOS>BOND
     1    1    2 ar   
     2    1    6 ar   
     3    1   21 1    
     4    2    3 ar   
     5    2   26 1    
     6    3    4 ar   
     7    3   15 1    
     8    4    5 ar   
     9    4   27 1    
    10    5    6 ar   
    11    5   28 1    
    12    6    7 1    
    13    7    8 1    
    14    8    9 ar   
    15    8   14 ar   
    16    9   10 ar   
    17    9   29 1    
    18   10   11 ar   
    19   10   22 1    
    20   11   12 ar   
    21   11   30 1    
    22   12   13 1    
    23   12   14 ar   
    24   14   31 1    
    25   15   16 2    
    26   15   17 2    
    27   15   18 1    
    28   18   19 1    
    29   18   20 1    
    30   18   23 1    
    31   21   24 1    
    32   21   25 1    
    33   21   32 1    
@<TRIPOS>SUBSTRUCTURE
     1 UNK         1 GROUP             0       ****    0 ROOT    
