@<TRIPOS>MOLECULE
42
34   35    1
SMALL
USER_CHARGES


@<TRIPOS>ATOM
      1 C1         27.3181    0.2176  -11.5431 C.3       1 UNK         0.0000 
      2 C2         24.8173   -0.0332  -11.4982 C.ar      1 UNK         0.0000 
      3 C3         26.0316   -0.2203  -10.8241 C.ar      1 UNK         0.0000 
      4 C4         26.0328   -0.7764   -9.5277 C.ar      1 UNK         0.0000 
      5 C5         24.8083   -1.0836   -8.9200 C.ar      1 UNK         0.0000 
      6 C6         23.6105   -0.9378   -9.6088 C.ar      1 UNK         0.0000 
      7 C7         23.6080   -0.4325  -10.9159 C.ar      1 UNK         0.0000 
      8 O8         22.4782   -0.3027  -11.6931 O.3       1 UNK         0.0000 
      9 C9         21.2413   -0.5786  -11.1883 C.ar      1 UNK         0.0000 
     10 C10        20.6684   -1.8341  -11.3988 C.ar      1 UNK         0.0000 
     11 C11        19.4219   -2.1085  -10.8663 C.ar      1 UNK         0.0000 
     12 C12        18.7432   -1.1382  -10.1421 C.ar      1 UNK         0.0000 
     13 C13        19.2836    0.1206   -9.9615 C.ar      1 UNK         0.0000 
     14 C14        18.5727    1.1637   -9.2506 C.1       1 UNK         0.0000 
     15 C15        20.5566    0.3950  -10.4703 C.ar      1 UNK         0.0000 
     16 S16        27.5391   -1.0763   -8.5681 S.o2      1 UNK         0.0000 
     17 O17        27.1919   -2.0237   -7.4724 O.2       1 UNK         0.0000 
     18 O18        28.6309   -1.4696   -9.4479 O.2       1 UNK         0.0000 
     19 C19        27.9381    0.5939   -7.7835 C.3       1 UNK         0.0000 
     20 F20        27.5845    1.5769   -8.6192 F         1 UNK         0.0000 
     21 F21        27.2323    0.7221   -6.6748 F         1 UNK         0.0000 
     22 Cl22       24.7447    0.7035  -13.0743 Cl        1 UNK         0.0000 
     23 O23        27.7285    1.4980  -11.1377 O.3       1 UNK         0.0000 
     24 F24        18.8540   -3.3240  -11.0570 F         1 UNK         0.0000 
     25 N25        17.9992    1.9902   -8.6618 N.1       1 UNK         0.0000 
     26 H26        28.1192   -0.5047  -11.4029 H         1 UNK         0.0000 
     27 H27        27.2079    0.2157  -12.6078 H         1 UNK         0.0000 
     28 H28        24.7733   -1.4610   -7.9041 H         1 UNK         0.0000 
     29 H29        22.6894   -1.2359   -9.1283 H         1 UNK         0.0000 
     30 H30        21.2059   -2.5899  -11.9543 H         1 UNK         0.0000 
     31 H31        17.7913   -1.4035   -9.7072 H         1 UNK         0.0000 
     32 H32        21.0082    1.3546  -10.2735 H         1 UNK         0.0000 
     33 H33        29.0034    0.6658   -7.6024 H         1 UNK         0.0000 
     34 H34        28.5462    1.7462  -11.6214 H         1 UNK         0.0000 
@<TRIPOS>BOND
     1    1    3 1    
     2    1   23 1    
     3    1   26 1    
     4    1   27 1    
     5    2    3 ar   
     6    2    7 ar   
     7    2   22 1    
     8    3    4 ar   
     9    4    5 ar   
    10    4   16 1    
    11    5    6 ar   
    12    5   28 1    
    13    6    7 ar   
    14    6   29 1    
    15    7    8 1    
    16    8    9 1    
    17    9   10 ar   
    18    9   15 ar   
    19   10   11 ar   
    20   10   30 1    
    21   11   12 ar   
    22   11   24 1    
    23   12   13 ar   
    24   12   31 1    
    25   13   14 1    
    26   13   15 ar   
    27   14   25 3    
    28   15   32 1    
    29   16   17 2    
    30   16   18 2    
    31   16   19 1    
    32   19   20 1    
    33   19   21 1    
    34   19   33 1    
    35   23   34 1    
@<TRIPOS>SUBSTRUCTURE
     1 UNK         1 GROUP             0       ****    0 ROOT    
