@<TRIPOS>MOLECULE
31
34   35    1
SMALL
USER_CHARGES


@<TRIPOS>ATOM
      1 C1         27.3687    0.2213  -11.4876 C.3       1 UNK         0.0000 
      2 C2         24.8311   -0.0329  -11.4879 C.ar      1 UNK         0.0000 
      3 C3         26.0513   -0.2060  -10.8090 C.ar      1 UNK         0.0000 
      4 C4         26.0346   -0.7690   -9.5108 C.ar      1 UNK         0.0000 
      5 C5         24.8065   -1.0848   -8.9114 C.ar      1 UNK         0.0000 
      6 C6         23.6126   -0.9312   -9.6030 C.ar      1 UNK         0.0000 
      7 C7         23.6048   -0.4328  -10.9121 C.ar      1 UNK         0.0000 
      8 O8         22.4609   -0.3198  -11.6757 O.3       1 UNK         0.0000 
      9 C9         21.2233   -0.5921  -11.1719 C.ar      1 UNK         0.0000 
     10 C10        20.6530   -1.8418  -11.3921 C.ar      1 UNK         0.0000 
     11 C11        19.3963   -2.1272  -10.8608 C.ar      1 UNK         0.0000 
     12 C12        18.7071   -1.1442  -10.1414 C.ar      1 UNK         0.0000 
     13 C13        19.2670    0.1229   -9.9620 C.ar      1 UNK         0.0000 
     14 C14        18.5714    1.1621   -9.2281 C.1       1 UNK         0.0000 
     15 C15        20.5386    0.3929  -10.4709 C.ar      1 UNK         0.0000 
     16 S16        27.5350   -1.0864   -8.5576 S.o2      1 UNK         0.0000 
     17 O17        27.1968   -2.0245   -7.4788 O.2       1 UNK         0.0000 
     18 O18        28.6157   -1.4679   -9.4665 O.2       1 UNK         0.0000 
     19 C19        27.9318    0.6142   -7.8020 C.3       1 UNK         0.0000 
     20 F20        27.7568    1.5787   -8.6983 F         1 UNK         0.0000 
     21 F21        27.1155    0.8088   -6.7700 F         1 UNK         0.0000 
     22 C22        24.8004    0.6001  -12.7879 C.1       1 UNK         0.0000 
     23 N23        24.7996    1.1238  -13.8126 N.1       1 UNK         0.0000 
     24 N24        18.0264    1.9917   -8.6305 N.1       1 UNK         0.0000 
     25 H25        28.1184    0.5861  -10.8006 H         1 UNK         0.0000 
     26 H26        27.2481    1.0576  -12.1796 H         1 UNK         0.0000 
     27 H27        27.7954   -0.6318  -12.0131 H         1 UNK         0.0000 
     28 H28        24.7776   -1.4910   -7.9124 H         1 UNK         0.0000 
     29 H29        22.6867   -1.2338   -9.1282 H         1 UNK         0.0000 
     30 H30        21.1960   -2.5887  -11.9550 H         1 UNK         0.0000 
     31 H31        18.9723   -3.1105  -11.0023 H         1 UNK         0.0000 
     32 H32        17.7461   -1.3892   -9.7168 H         1 UNK         0.0000 
     33 H33        21.0038    1.3570  -10.3207 H         1 UNK         0.0000 
     34 H34        28.9726    0.6087   -7.4924 H         1 UNK         0.0000 
@<TRIPOS>BOND
     1    1    3 1    
     2    1   25 1    
     3    1   26 1    
     4    1   27 1    
     5    2    3 ar   
     6    2    7 ar   
     7    2   22 1    
     8    3    4 ar   
     9    4    5 ar   
    10    4   16 1    
    11    5    6 ar   
    12    5   28 1    
    13    6    7 ar   
    14    6   29 1    
    15    7    8 1    
    16    8    9 1    
    17    9   10 ar   
    18    9   15 ar   
    19   10   11 ar   
    20   10   30 1    
    21   11   12 ar   
    22   11   31 1    
    23   12   13 ar   
    24   12   32 1    
    25   13   14 1    
    26   13   15 ar   
    27   14   24 3    
    28   15   33 1    
    29   16   17 2    
    30   16   18 2    
    31   16   19 1    
    32   19   20 1    
    33   19   21 1    
    34   19   34 1    
    35   22   23 3    
@<TRIPOS>SUBSTRUCTURE
     1 UNK         1 GROUP             0       ****    0 ROOT    
