@<TRIPOS>MOLECULE
252
37   39    1
SMALL
USER_CHARGES


@<TRIPOS>ATOM
      1 O1         27.6272    1.5392  -11.1203 O.3       1 UNK         0.0000 
      2 C2         27.1560    0.3040  -11.6456 C.3       1 UNK         0.0000 
      3 C3         26.5217    0.3806  -13.0460 C.3       1 UNK         0.0000 
      4 C4         25.0330    0.5955  -12.8364 C.3       1 UNK         0.0000 
      5 C5         24.8086   -0.0746  -11.4954 C.ar      1 UNK         0.0000 
      6 C6         26.0176   -0.2341  -10.8015 C.ar      1 UNK         0.0000 
      7 C7         26.0221   -0.7646   -9.5003 C.ar      1 UNK         0.0000 
      8 C8         24.8023   -1.0839   -8.8976 C.ar      1 UNK         0.0000 
      9 C9         23.6037   -0.9285   -9.5871 C.ar      1 UNK         0.0000 
     10 C10        23.6033   -0.4271  -10.8952 C.ar      1 UNK         0.0000 
     11 O11        22.4845   -0.2768  -11.6823 O.3       1 UNK         0.0000 
     12 C12        21.2452   -0.5718  -11.1881 C.ar      1 UNK         0.0000 
     13 C13        20.6754   -1.8264  -11.4017 C.ar      1 UNK         0.0000 
     14 C14        19.4205   -2.1096  -10.8738 C.ar      1 UNK         0.0000 
     15 F15        18.8538   -3.3152  -11.0677 F         1 UNK         0.0000 
     16 C16        18.7369   -1.1453  -10.1422 C.ar      1 UNK         0.0000 
     17 C17        19.2852    0.1248   -9.9603 C.ar      1 UNK         0.0000 
     18 C18        18.5778    1.1653   -9.2362 C.1       1 UNK         0.0000 
     19 C19        20.5515    0.3943  -10.4623 C.ar      1 UNK         0.0000 
     20 S20        27.5325   -1.0603   -8.5700 S.o2      1 UNK         0.0000 
     21 O21        27.2148   -1.9861   -7.4807 O.2       1 UNK         0.0000 
     22 O22        28.6045   -1.3793   -9.5081 O.2       1 UNK         0.0000 
     23 N23        27.9346    0.4720   -7.8610 N.pl3     1 UNK         0.0000 
     24 F24        27.0654    1.3180  -13.8219 F         1 UNK         0.0000 
     25 F25        26.6664   -0.7984  -13.6558 F         1 UNK         0.0000 
     26 N26        18.0227    1.9941   -8.6522 N.1       1 UNK         0.0000 
     27 H27        28.3555    1.8653  -11.6765 H         1 UNK         0.0000 
     28 H28        27.9781   -0.4091  -11.7063 H         1 UNK         0.0000 
     29 H29        24.4242    0.1890  -13.6462 H         1 UNK         0.0000 
     30 H30        24.8013    1.6590  -12.7701 H         1 UNK         0.0000 
     31 H31        24.7765   -1.4822   -7.8947 H         1 UNK         0.0000 
     32 H32        22.6850   -1.2325   -9.1075 H         1 UNK         0.0000 
     33 H33        21.2121   -2.5898  -11.9431 H         1 UNK         0.0000 
     34 H34        17.8013   -1.4259   -9.7039 H         1 UNK         0.0000 
     35 H35        21.0089    1.3503  -10.2685 H         1 UNK         0.0000 
     36 H36        27.2535    0.7935   -7.1729 H         1 UNK         0.0000 
     37 H37        28.1763    1.1767   -8.5625 H         1 UNK         0.0000 
@<TRIPOS>BOND
     1    1    2 1    
     2    1   27 1    
     3    2    3 1    
     4    2    6 1    
     5    2   28 1    
     6    3    4 1    
     7    3   24 1    
     8    3   25 1    
     9    4    5 1    
    10    4   29 1    
    11    4   30 1    
    12    5    6 ar   
    13    5   10 ar   
    14    6    7 ar   
    15    7    8 ar   
    16    7   20 1    
    17    8    9 ar   
    18    8   31 1    
    19    9   10 ar   
    20    9   32 1    
    21   10   11 1    
    22   11   12 1    
    23   12   13 ar   
    24   12   19 ar   
    25   13   14 ar   
    26   13   33 1    
    27   14   15 1    
    28   14   16 ar   
    29   16   17 ar   
    30   16   34 1    
    31   17   18 1    
    32   17   19 ar   
    33   18   26 3    
    34   19   35 1    
    35   20   21 2    
    36   20   22 2    
    37   20   23 1    
    38   23   36 1    
    39   23   37 1    
@<TRIPOS>SUBSTRUCTURE
     1 UNK         1 GROUP             0       ****    0 ROOT    
