@<TRIPOS>MOLECULE
15
38   40    1
SMALL
USER_CHARGES


@<TRIPOS>ATOM
      1 O1         27.5645    1.5617  -11.2470 O.3       1 UNK         0.0000 
      2 C2         27.1438    0.2894  -11.6866 C.3       1 UNK         0.0000 
      3 C3         26.5069    0.3556  -13.0757 C.3       1 UNK         0.0000 
      4 C4         25.0262    0.5977  -12.8413 C.3       1 UNK         0.0000 
      5 C5         24.8031   -0.0727  -11.5007 C.ar      1 UNK         0.0000 
      6 C6         26.0146   -0.2359  -10.8163 C.ar      1 UNK         0.0000 
      7 C7         26.0213   -0.7692   -9.5151 C.ar      1 UNK         0.0000 
      8 C8         24.8049   -1.0873   -8.9042 C.ar      1 UNK         0.0000 
      9 C9         23.6051   -0.9368   -9.5930 C.ar      1 UNK         0.0000 
     10 C10        23.6014   -0.4415  -10.9017 C.ar      1 UNK         0.0000 
     11 O11        22.4836   -0.2868  -11.6891 O.3       1 UNK         0.0000 
     12 C12        21.2430   -0.5721  -11.1917 C.ar      1 UNK         0.0000 
     13 C13        20.6758   -1.8287  -11.4014 C.ar      1 UNK         0.0000 
     14 C14        19.4200   -2.1085  -10.8706 C.ar      1 UNK         0.0000 
     15 F15        18.8549   -3.3186  -11.0589 F         1 UNK         0.0000 
     16 C16        18.7372   -1.1390  -10.1439 C.ar      1 UNK         0.0000 
     17 C17        19.2837    0.1313   -9.9594 C.ar      1 UNK         0.0000 
     18 C18        18.5786    1.1709   -9.2254 C.1       1 UNK         0.0000 
     19 C19        20.5524    0.3981  -10.4669 C.ar      1 UNK         0.0000 
     20 S20        27.5332   -1.0635   -8.5894 S.o2      1 UNK         0.0000 
     21 O21        27.2225   -2.0202   -7.5218 O.2       1 UNK         0.0000 
     22 O22        28.5866   -1.4048   -9.5424 O.2       1 UNK         0.0000 
     23 C23        27.9649    0.6070   -7.8096 C.3       1 UNK         0.0000 
     24 F24        27.9127    1.5706   -8.7312 F         1 UNK         0.0000 
     25 F25        27.1075    0.8491   -6.8159 F         1 UNK         0.0000 
     26 F26        27.0532    1.2940  -13.8508 F         1 UNK         0.0000 
     27 F27        26.6473   -0.8235  -13.6788 F         1 UNK         0.0000 
     28 N28        18.0226    1.9829   -8.6098 N.1       1 UNK         0.0000 
     29 H29        28.3466    1.8345  -11.7534 H         1 UNK         0.0000 
     30 H30        27.9838   -0.4055  -11.7093 H         1 UNK         0.0000 
     31 H31        24.4086    0.1833  -13.6391 H         1 UNK         0.0000 
     32 H32        24.8053    1.6637  -12.7779 H         1 UNK         0.0000 
     33 H33        24.7815   -1.4717   -7.8954 H         1 UNK         0.0000 
     34 H34        22.6864   -1.2351   -9.1095 H         1 UNK         0.0000 
     35 H35        21.2089   -2.5934  -11.9466 H         1 UNK         0.0000 
     36 H36        17.7966   -1.4127   -9.7040 H         1 UNK         0.0000 
     37 H37        21.0132    1.3531  -10.2641 H         1 UNK         0.0000 
     38 H38        28.9783    0.5461   -7.4245 H         1 UNK         0.0000 
@<TRIPOS>BOND
     1    1    2 1    
     2    1   29 1    
     3    2    3 1    
     4    2    6 1    
     5    2   30 1    
     6    3    4 1    
     7    3   26 1    
     8    3   27 1    
     9    4    5 1    
    10    4   31 1    
    11    4   32 1    
    12    5    6 ar   
    13    5   10 ar   
    14    6    7 ar   
    15    7    8 ar   
    16    7   20 1    
    17    8    9 ar   
    18    8   33 1    
    19    9   10 ar   
    20    9   34 1    
    21   10   11 1    
    22   11   12 1    
    23   12   13 ar   
    24   12   19 ar   
    25   13   14 ar   
    26   13   35 1    
    27   14   15 1    
    28   14   16 ar   
    29   16   17 ar   
    30   16   36 1    
    31   17   18 1    
    32   17   19 ar   
    33   18   28 3    
    34   19   37 1    
    35   20   21 2    
    36   20   22 2    
    37   20   23 1    
    38   23   24 1    
    39   23   25 1    
    40   23   38 1    
@<TRIPOS>SUBSTRUCTURE
     1 UNK         1 GROUP             0       ****    0 ROOT    
