@<TRIPOS>MOLECULE
41
33   34    1
SMALL
USER_CHARGES


@<TRIPOS>ATOM
      1 C1         27.3160    0.2119  -11.5679 C.3       1 UNK         0.0000 
      2 C2         24.8220   -0.0323  -11.5026 C.ar      1 UNK         0.0000 
      3 C3         26.0361   -0.2219  -10.8310 C.ar      1 UNK         0.0000 
      4 C4         26.0397   -0.7735   -9.5325 C.ar      1 UNK         0.0000 
      5 C5         24.8104   -1.0828   -8.9203 C.ar      1 UNK         0.0000 
      6 C6         23.6135   -0.9357   -9.6149 C.ar      1 UNK         0.0000 
      7 C7         23.6068   -0.4317  -10.9153 C.ar      1 UNK         0.0000 
      8 O8         22.4766   -0.2993  -11.6901 O.3       1 UNK         0.0000 
      9 C9         21.2357   -0.5744  -11.1818 C.ar      1 UNK         0.0000 
     10 C10        20.6684   -1.8291  -11.3974 C.ar      1 UNK         0.0000 
     11 C11        19.4181   -2.1063  -10.8643 C.ar      1 UNK         0.0000 
     12 C12        18.7365   -1.1464  -10.1377 C.ar      1 UNK         0.0000 
     13 C13        19.2879    0.1264   -9.9486 C.ar      1 UNK         0.0000 
     14 Cl14       18.4235    1.3441   -9.0874 Cl        1 UNK         0.0000 
     15 C15        20.5478    0.3920  -10.4587 C.ar      1 UNK         0.0000 
     16 S16        27.5365   -1.0750   -8.5540 S.o2      1 UNK         0.0000 
     17 O17        27.1819   -2.0141   -7.4668 O.2       1 UNK         0.0000 
     18 O18        28.6395   -1.4886   -9.4342 O.2       1 UNK         0.0000 
     19 C19        27.9537    0.5878   -7.7603 C.3       1 UNK         0.0000 
     20 F20        27.8618    1.5770   -8.6716 F         1 UNK         0.0000 
     21 F21        27.0945    0.8268   -6.7955 F         1 UNK         0.0000 
     22 Cl22       24.7431    0.7028  -13.0772 Cl        1 UNK         0.0000 
     23 O23        27.6785    1.5088  -11.1977 O.3       1 UNK         0.0000 
     24 F24        18.8518   -3.3193  -11.0584 F         1 UNK         0.0000 
     25 H25        28.1256   -0.4939  -11.4275 H         1 UNK         0.0000 
     26 H26        27.1998    0.1919  -12.6248 H         1 UNK         0.0000 
     27 H27        24.7747   -1.4609   -7.9094 H         1 UNK         0.0000 
     28 H28        22.6917   -1.2340   -9.1288 H         1 UNK         0.0000 
     29 H29        21.2039   -2.5877  -11.9510 H         1 UNK         0.0000 
     30 H30        17.7946   -1.3928   -9.6999 H         1 UNK         0.0000 
     31 H31        20.9897    1.3596  -10.2596 H         1 UNK         0.0000 
     32 H32        28.9741    0.5773   -7.4253 H         1 UNK         0.0000 
     33 H33        28.4604    1.8112  -11.7624 H         1 UNK         0.0000 
@<TRIPOS>BOND
     1    1    3 1    
     2    1   23 1    
     3    1   25 1    
     4    1   26 1    
     5    2    3 ar   
     6    2    7 ar   
     7    2   22 1    
     8    3    4 ar   
     9    4    5 ar   
    10    4   16 1    
    11    5    6 ar   
    12    5   27 1    
    13    6    7 ar   
    14    6   28 1    
    15    7    8 1    
    16    8    9 1    
    17    9   10 ar   
    18    9   15 ar   
    19   10   11 ar   
    20   10   29 1    
    21   11   12 ar   
    22   11   24 1    
    23   12   13 ar   
    24   12   30 1    
    25   13   14 1    
    26   13   15 ar   
    27   15   31 1    
    28   16   17 2    
    29   16   18 2    
    30   16   19 1    
    31   19   20 1    
    32   19   21 1    
    33   19   32 1    
    34   23   33 1    
@<TRIPOS>SUBSTRUCTURE
     1 UNK         1 GROUP             0       ****    0 ROOT    
