@<TRIPOS>MOLECULE
227
38   40    1
SMALL
USER_CHARGES


@<TRIPOS>ATOM
      1 O1         27.8272    1.5641  -11.0613 O.3       1 UNK         0.0000 
      2 C2         27.1196    0.5197  -11.7089 C.3       1 UNK         0.0000 
      3 C3         26.4410    0.9322  -13.0322 C.3       1 UNK         0.0000 
      4 C4         25.0569    0.3132  -13.0465 C.3       1 UNK         0.0000 
      5 C5         24.8031   -0.0378  -11.5948 C.ar      1 UNK         0.0000 
      6 C6         25.9821   -0.0054  -10.8391 C.ar      1 UNK         0.0000 
      7 C7         25.9756   -0.4108   -9.4860 C.ar      1 UNK         0.0000 
      8 C8         24.7523   -0.7639   -8.9047 C.ar      1 UNK         0.0000 
      9 C9         23.5893   -0.8199   -9.6602 C.ar      1 UNK         0.0000 
     10 C10        23.6070   -0.4713  -11.0162 C.ar      1 UNK         0.0000 
     11 O11        22.5129   -0.5291  -11.8499 O.3       1 UNK         0.0000 
     12 C12        21.2693   -0.7597  -11.3270 C.ar      1 UNK         0.0000 
     13 C13        20.6685   -2.0051  -11.4862 C.ar      1 UNK         0.0000 
     14 C14        19.4249   -2.2461  -10.9160 C.ar      1 UNK         0.0000 
     15 F15        18.8269   -3.4424  -11.0720 F         1 UNK         0.0000 
     16 C16        18.7871   -1.2517  -10.1791 C.ar      1 UNK         0.0000 
     17 C17        19.3542    0.0199  -10.0730 C.ar      1 UNK         0.0000 
     18 C18        18.6860    1.1030   -9.3771 C.1       1 UNK         0.0000 
     19 C19        20.6055    0.2435  -10.6245 C.ar      1 UNK         0.0000 
     20 S20        27.4540   -0.4504   -8.4410 S.o2      1 UNK         0.0000 
     21 O21        27.2130   -1.3677   -7.3228 O.2       1 UNK         0.0000 
     22 O22        28.5784   -0.6917   -9.3508 O.2       1 UNK         0.0000 
     23 C23        27.6740    1.2644   -7.6619 C.3       1 UNK         0.0000 
     24 F24        26.2395    2.2465  -13.0641 F         1 UNK         0.0000 
     25 N25        18.1663    1.9675   -8.8128 N.1       1 UNK         0.0000 
     26 F26        27.2225    1.2103   -6.4199 F         1 UNK         0.0000 
     27 F27        28.9768    1.5534   -7.6702 F         1 UNK         0.0000 
     28 F28        27.0318    2.1940   -8.3234 F         1 UNK         0.0000 
     29 H29        28.5149    1.9300  -11.6463 H         1 UNK         0.0000 
     30 H30        27.8025   -0.3009  -11.9316 H         1 UNK         0.0000 
     31 H31        27.0306    0.7186  -13.9241 H         1 UNK         0.0000 
     32 H32        25.0758   -0.5870  -13.6585 H         1 UNK         0.0000 
     33 H33        24.3018    0.9764  -13.4758 H         1 UNK         0.0000 
     34 H34        24.6649   -1.0110   -7.8636 H         1 UNK         0.0000 
     35 H35        22.6896   -1.1518   -9.1671 H         1 UNK         0.0000 
     36 H36        21.1858   -2.7906  -12.0103 H         1 UNK         0.0000 
     37 H37        17.8819   -1.5039   -9.6760 H         1 UNK         0.0000 
     38 H38        21.0827    1.1859  -10.4602 H         1 UNK         0.0000 
@<TRIPOS>BOND
     1    1    2 1    
     2    1   29 1    
     3    2    3 1    
     4    2    6 1    
     5    2   30 1    
     6    3    4 1    
     7    3   24 1    
     8    3   31 1    
     9    4    5 1    
    10    4   32 1    
    11    4   33 1    
    12    5    6 ar   
    13    5   10 ar   
    14    6    7 ar   
    15    7    8 ar   
    16    7   20 1    
    17    8    9 ar   
    18    8   34 1    
    19    9   10 ar   
    20    9   35 1    
    21   10   11 1    
    22   11   12 1    
    23   12   13 ar   
    24   12   19 ar   
    25   13   14 ar   
    26   13   36 1    
    27   14   15 1    
    28   14   16 ar   
    29   16   17 ar   
    30   16   37 1    
    31   17   18 1    
    32   17   19 ar   
    33   18   25 3    
    34   19   38 1    
    35   20   21 2    
    36   20   22 2    
    37   20   23 1    
    38   23   26 1    
    39   23   27 1    
    40   23   28 1    
@<TRIPOS>SUBSTRUCTURE
     1 UNK         1 GROUP             0       ****    0 ROOT    
