@<TRIPOS>MOLECULE
163
38   40    1
SMALL
USER_CHARGES


@<TRIPOS>ATOM
      1 O1         27.5787    1.5603  -11.1550 O.3       1 UNK         0.0000 
      2 C2         27.1514    0.3087  -11.6602 C.3       1 UNK         0.0000 
      3 C3         26.5211    0.3751  -13.0576 C.3       1 UNK         0.0000 
      4 C4         25.0338    0.5863  -12.8456 C.3       1 UNK         0.0000 
      5 C5         24.8061   -0.0850  -11.5041 C.ar      1 UNK         0.0000 
      6 C6         26.0164   -0.2498  -10.8166 C.ar      1 UNK         0.0000 
      7 C7         26.0198   -0.7868   -9.5184 C.ar      1 UNK         0.0000 
      8 C8         24.8022   -1.0984   -8.9082 C.ar      1 UNK         0.0000 
      9 C9         23.6047   -0.9287   -9.5876 C.ar      1 UNK         0.0000 
     10 C10        23.6011   -0.4346  -10.8994 C.ar      1 UNK         0.0000 
     11 O11        22.4804   -0.2663  -11.6771 O.3       1 UNK         0.0000 
     12 C12        21.2449   -0.5687  -11.1803 C.ar      1 UNK         0.0000 
     13 C13        20.6785   -1.8246  -11.3976 C.ar      1 UNK         0.0000 
     14 C14        19.4221   -2.1093  -10.8761 C.ar      1 UNK         0.0000 
     15 F15        18.8542   -3.3170  -11.0822 F         1 UNK         0.0000 
     16 C16        18.7363   -1.1524  -10.1388 C.ar      1 UNK         0.0000 
     17 C17        19.2883    0.1230   -9.9547 C.ar      1 UNK         0.0000 
     18 C18        18.5697    1.1665   -9.2401 C.1       1 UNK         0.0000 
     19 C19        20.5476    0.3902  -10.4511 C.ar      1 UNK         0.0000 
     20 S20        27.5198   -1.0658   -8.5788 S.o2      1 UNK         0.0000 
     21 O21        27.2106   -1.9783   -7.4776 O.2       1 UNK         0.0000 
     22 O22        28.5996   -1.4049   -9.5080 O.2       1 UNK         0.0000 
     23 C23        27.9060    0.6119   -7.8645 C.3       1 UNK         0.0000 
     24 F24        27.0587    1.3217  -13.8292 F         1 UNK         0.0000 
     25 F25        26.6743   -0.8002  -13.6631 F         1 UNK         0.0000 
     26 N26        18.0197    2.0048   -8.6626 N.1       1 UNK         0.0000 
     27 H27        28.3401    1.8773  -11.6535 H         1 UNK         0.0000 
     28 H28        27.9965   -0.3807  -11.7030 H         1 UNK         0.0000 
     29 H29        24.4304    0.1815  -13.6650 H         1 UNK         0.0000 
     30 H30        24.7949    1.6423  -12.7675 H         1 UNK         0.0000 
     31 H31        24.7812   -1.4913   -7.9023 H         1 UNK         0.0000 
     32 H32        22.6852   -1.2202   -9.0977 H         1 UNK         0.0000 
     33 H33        21.2178   -2.5834  -11.9440 H         1 UNK         0.0000 
     34 H34        17.7955   -1.4363   -9.7044 H         1 UNK         0.0000 
     35 H35        21.0080    1.3516  -10.2626 H         1 UNK         0.0000 
     36 H36        28.9206    0.5438   -7.4820 H         1 UNK         0.0000 
     37 H37        27.1930    0.8396   -7.0713 H         1 UNK         0.0000 
     38 H38        27.8723    1.3668   -8.6460 H         1 UNK         0.0000 
@<TRIPOS>BOND
     1    1    2 1    
     2    1   27 1    
     3    2    3 1    
     4    2    6 1    
     5    2   28 1    
     6    3    4 1    
     7    3   24 1    
     8    3   25 1    
     9    4    5 1    
    10    4   29 1    
    11    4   30 1    
    12    5    6 ar   
    13    5   10 ar   
    14    6    7 ar   
    15    7    8 ar   
    16    7   20 1    
    17    8    9 ar   
    18    8   31 1    
    19    9   10 ar   
    20    9   32 1    
    21   10   11 1    
    22   11   12 1    
    23   12   13 ar   
    24   12   19 ar   
    25   13   14 ar   
    26   13   33 1    
    27   14   15 1    
    28   14   16 ar   
    29   16   17 ar   
    30   16   34 1    
    31   17   18 1    
    32   17   19 ar   
    33   18   26 3    
    34   19   35 1    
    35   20   21 2    
    36   20   22 2    
    37   20   23 1    
    38   23   36 1    
    39   23   37 1    
    40   23   38 1    
@<TRIPOS>SUBSTRUCTURE
     1 UNK         1 GROUP             0       ****    0 ROOT    
