@<TRIPOS>MOLECULE
54
36   37    1
SMALL
USER_CHARGES


@<TRIPOS>ATOM
      1 C1         27.3739    0.2021  -11.5257 C.3       1 UNK         0.0000 
      2 C2         24.8166   -0.0727  -11.5403 C.ar      1 UNK         0.0000 
      3 C3         26.0692   -0.2356  -10.8548 C.ar      1 UNK         0.0000 
      4 C4         26.0425   -0.7765   -9.5491 C.ar      1 UNK         0.0000 
      5 C5         24.8317   -1.0884   -8.9403 C.ar      1 UNK         0.0000 
      6 C6         23.6267   -0.9347   -9.6164 C.ar      1 UNK         0.0000 
      7 C7         23.6229   -0.4433  -10.9232 C.ar      1 UNK         0.0000 
      8 O8         22.4601   -0.2995  -11.6659 O.3       1 UNK         0.0000 
      9 C9         21.2313   -0.5849  -11.1558 C.ar      1 UNK         0.0000 
     10 C10        20.6536   -1.8315  -11.3749 C.ar      1 UNK         0.0000 
     11 C11        19.3870   -2.1109  -10.8587 C.ar      1 UNK         0.0000 
     12 C12        18.7018   -1.1325  -10.1312 C.ar      1 UNK         0.0000 
     13 C13        19.2617    0.1200   -9.9382 C.ar      1 UNK         0.0000 
     14 Cl14       18.4013    1.3488   -9.0779 Cl        1 UNK         0.0000 
     15 C15        20.5319    0.3986  -10.4453 C.ar      1 UNK         0.0000 
     16 S16        27.5413   -1.0868   -8.5786 S.o2      1 UNK         0.0000 
     17 O17        27.1521   -2.0097   -7.4995 O.2       1 UNK         0.0000 
     18 C18        27.9317    0.5862   -7.8045 C.3       1 UNK         0.0000 
     19 C19        24.7489    0.5863  -12.9072 C.3       1 UNK         0.0000 
     20 F20        18.8205   -3.3078  -11.0704 F         1 UNK         0.0000 
     21 O21        28.6431   -1.4626   -9.4346 O.2       1 UNK         0.0000 
     22 O22        27.8838    1.4066  -10.9877 O.3       1 UNK         0.0000 
     23 F23        25.0512    1.8655  -12.6953 F         1 UNK         0.0000 
     24 F24        25.5439    0.0623  -13.8379 F         1 UNK         0.0000 
     25 H25        28.0990   -0.6021  -11.4607 H         1 UNK         0.0000 
     26 H26        27.3066    0.3708  -12.5896 H         1 UNK         0.0000 
     27 H27        24.7932   -1.4850   -7.9329 H         1 UNK         0.0000 
     28 H28        22.7096   -1.2257   -9.1246 H         1 UNK         0.0000 
     29 H29        21.1835   -2.5849  -11.9420 H         1 UNK         0.0000 
     30 H30        17.7315   -1.3728   -9.7222 H         1 UNK         0.0000 
     31 H31        20.9738    1.3666  -10.2947 H         1 UNK         0.0000 
     32 H32        28.9058    0.4975   -7.3383 H         1 UNK         0.0000 
     33 H33        27.1560    0.8615   -7.0926 H         1 UNK         0.0000 
     34 H34        27.9947    1.3445   -8.5786 H         1 UNK         0.0000 
     35 H35        23.7601    0.5443  -13.3706 H         1 UNK         0.0000 
     36 H36        28.5336    1.7915  -11.6096 H         1 UNK         0.0000 
@<TRIPOS>BOND
     1    1    3 1    
     2    1   22 1    
     3    1   25 1    
     4    1   26 1    
     5    2    3 ar   
     6    2    7 ar   
     7    2   19 1    
     8    3    4 ar   
     9    4    5 ar   
    10    4   16 1    
    11    5    6 ar   
    12    5   27 1    
    13    6    7 ar   
    14    6   28 1    
    15    7    8 1    
    16    8    9 1    
    17    9   10 ar   
    18    9   15 ar   
    19   10   11 ar   
    20   10   29 1    
    21   11   12 ar   
    22   11   20 1    
    23   12   13 ar   
    24   12   30 1    
    25   13   14 1    
    26   13   15 ar   
    27   15   31 1    
    28   16   17 2    
    29   16   18 1    
    30   16   21 2    
    31   18   32 1    
    32   18   33 1    
    33   18   34 1    
    34   19   23 1    
    35   19   24 1    
    36   19   35 1    
    37   22   36 1    
@<TRIPOS>SUBSTRUCTURE
     1 UNK         1 GROUP             0       ****    0 ROOT    
