@<TRIPOS>MOLECULE
35
34   35    1
SMALL
USER_CHARGES


@<TRIPOS>ATOM
      1 C1         27.3436    0.2181  -11.4886 C.3       1 UNK         0.0000 
      2 C2         24.8143   -0.0349  -11.4934 C.ar      1 UNK         0.0000 
      3 C3         26.0359   -0.2157  -10.8128 C.ar      1 UNK         0.0000 
      4 C4         26.0279   -0.7798   -9.5188 C.ar      1 UNK         0.0000 
      5 C5         24.8027   -1.0842   -8.9107 C.ar      1 UNK         0.0000 
      6 C6         23.6077   -0.9361   -9.6066 C.ar      1 UNK         0.0000 
      7 C7         23.6033   -0.4369  -10.9127 C.ar      1 UNK         0.0000 
      8 O8         22.4684   -0.3083  -11.6869 O.3       1 UNK         0.0000 
      9 C9         21.2346   -0.5820  -11.1843 C.ar      1 UNK         0.0000 
     10 C10        20.6688   -1.8348  -11.3989 C.ar      1 UNK         0.0000 
     11 C11        19.4172   -2.1128  -10.8633 C.ar      1 UNK         0.0000 
     12 C12        18.7392   -1.1398  -10.1370 C.ar      1 UNK         0.0000 
     13 C13        19.2891    0.1256   -9.9557 C.ar      1 UNK         0.0000 
     14 Cl14       18.4298    1.3495   -9.0945 Cl        1 UNK         0.0000 
     15 C15        20.5490    0.3955  -10.4695 C.ar      1 UNK         0.0000 
     16 S16        27.5361   -1.1002   -8.5609 S.o2      1 UNK         0.0000 
     17 O17        27.1915   -2.0165   -7.4763 O.2       1 UNK         0.0000 
     18 O18        28.6294   -1.4923   -9.4625 O.2       1 UNK         0.0000 
     19 C19        27.9209    0.6056   -7.8457 C.3       1 UNK         0.0000 
     20 F20        27.8955    1.4798   -8.8507 F         1 UNK         0.0000 
     21 F21        26.9875    0.8733   -6.9434 F         1 UNK         0.0000 
     22 C22        24.7678    0.5910  -12.8118 C.1       1 UNK         0.0000 
     23 N23        24.7397    1.0868  -13.8577 N.1       1 UNK         0.0000 
     24 O24        27.7506    1.4985  -11.0563 O.3       1 UNK         0.0000 
     25 F25        18.8551   -3.3220  -11.0512 F         1 UNK         0.0000 
     26 H26        28.1384   -0.4849  -11.3364 H         1 UNK         0.0000 
     27 H27        27.2792    0.1852  -12.5694 H         1 UNK         0.0000 
     28 H28        24.7669   -1.4583   -7.8977 H         1 UNK         0.0000 
     29 H29        22.6880   -1.2361   -9.1232 H         1 UNK         0.0000 
     30 H30        21.2037   -2.5885  -11.9555 H         1 UNK         0.0000 
     31 H31        17.7939   -1.3817   -9.7021 H         1 UNK         0.0000 
     32 H32        20.9933    1.3586  -10.2824 H         1 UNK         0.0000 
     33 H33        28.8931    0.6288   -7.3559 H         1 UNK         0.0000 
     34 H34        28.4520    1.8114  -11.6736 H         1 UNK         0.0000 
@<TRIPOS>BOND
     1    1    3 1    
     2    1   24 1    
     3    1   26 1    
     4    1   27 1    
     5    2    3 ar   
     6    2    7 ar   
     7    2   22 1    
     8    3    4 ar   
     9    4    5 ar   
    10    4   16 1    
    11    5    6 ar   
    12    5   28 1    
    13    6    7 ar   
    14    6   29 1    
    15    7    8 1    
    16    8    9 1    
    17    9   10 ar   
    18    9   15 ar   
    19   10   11 ar   
    20   10   30 1    
    21   11   12 ar   
    22   11   25 1    
    23   12   13 ar   
    24   12   31 1    
    25   13   14 1    
    26   13   15 ar   
    27   15   32 1    
    28   16   17 2    
    29   16   18 2    
    30   16   19 1    
    31   19   20 1    
    32   19   21 1    
    33   19   33 1    
    34   22   23 3    
    35   24   34 1    
@<TRIPOS>SUBSTRUCTURE
     1 UNK         1 GROUP             0       ****    0 ROOT    
