@<TRIPOS>MOLECULE
25
36   38    1
SMALL
USER_CHARGES


@<TRIPOS>ATOM
      1 O1         27.5859    1.5623  -11.2324 O.3       1 UNK         0.0000 
      2 C2         27.1492    0.2971  -11.6733 C.3       1 UNK         0.0000 
      3 C3         26.5076    0.3637  -13.0705 C.3       1 UNK         0.0000 
      4 C4         25.0245    0.6054  -12.8334 C.3       1 UNK         0.0000 
      5 C5         24.7996   -0.0551  -11.4938 C.ar      1 UNK         0.0000 
      6 C6         26.0078   -0.2311  -10.8127 C.ar      1 UNK         0.0000 
      7 C7         26.0108   -0.7709   -9.5133 C.ar      1 UNK         0.0000 
      8 C8         24.8035   -1.0874   -8.9001 C.ar      1 UNK         0.0000 
      9 C9         23.5881   -0.9333   -9.6008 C.ar      1 UNK         0.0000 
     10 C10        23.5951   -0.4351  -10.8957 C.ar      1 UNK         0.0000 
     11 O11        22.4690   -0.2899  -11.6964 O.3       1 UNK         0.0000 
     12 C12        21.2387   -0.6920  -11.2605 C.ar      1 UNK         0.0000 
     13 C13        20.3852    0.2262  -10.6417 C.ar      1 UNK         0.0000 
     14 C14        19.1164   -0.1734  -10.2278 C.ar      1 UNK         0.0000 
     15 Cl15       18.0692    0.9590   -9.4559 Cl        1 UNK         0.0000 
     16 C16        18.7285   -1.4968  -10.4568 C.ar      1 UNK         0.0000 
     17 N17        19.5276   -2.4069  -11.0647 N.ar      1 UNK         0.0000 
     18 C18        20.7667   -1.9978  -11.4607 C.ar      1 UNK         0.0000 
     19 S19        27.5322   -1.0704   -8.5909 S.o2      1 UNK         0.0000 
     20 O20        27.2287   -2.0196   -7.5193 O.2       1 UNK         0.0000 
     21 O21        28.5815   -1.4021   -9.5453 O.2       1 UNK         0.0000 
     22 C22        27.9369    0.6210   -7.8282 C.3       1 UNK         0.0000 
     23 F23        27.8067    1.5658   -8.7311 F         1 UNK         0.0000 
     24 F24        27.0921    0.8174   -6.7982 F         1 UNK         0.0000 
     25 F25        27.0574    1.2966  -13.8388 F         1 UNK         0.0000 
     26 F26        26.6394   -0.8195  -13.6770 F         1 UNK         0.0000 
     27 H27        28.3654    1.8186  -11.7483 H         1 UNK         0.0000 
     28 H28        27.9795   -0.4193  -11.6983 H         1 UNK         0.0000 
     29 H29        24.8071    1.6777  -12.7817 H         1 UNK         0.0000 
     30 H30        24.4128    0.1822  -13.6214 H         1 UNK         0.0000 
     31 H31        24.7768   -1.4645   -7.8942 H         1 UNK         0.0000 
     32 H32        22.6768   -1.2344   -9.1176 H         1 UNK         0.0000 
     33 H33        20.7002    1.2442  -10.4779 H         1 UNK         0.0000 
     34 H34        17.7565   -1.8493  -10.1507 H         1 UNK         0.0000 
     35 H35        21.3860   -2.7416  -11.9336 H         1 UNK         0.0000 
     36 H36        28.9749    0.6019   -7.4639 H         1 UNK         0.0000 
@<TRIPOS>BOND
     1    1    2 1    
     2    1   27 1    
     3    2    3 1    
     4    2    6 1    
     5    2   28 1    
     6    3    4 1    
     7    3   25 1    
     8    3   26 1    
     9    4    5 1    
    10    4   29 1    
    11    4   30 1    
    12    5    6 ar   
    13    5   10 ar   
    14    6    7 ar   
    15    7    8 ar   
    16    7   19 1    
    17    8    9 ar   
    18    8   31 1    
    19    9   10 ar   
    20    9   32 1    
    21   10   11 1    
    22   11   12 1    
    23   12   13 ar   
    24   12   18 ar   
    25   13   14 ar   
    26   13   33 1    
    27   14   15 1    
    28   14   16 ar   
    29   16   17 ar   
    30   16   34 1    
    31   17   18 ar   
    32   18   35 1    
    33   19   20 2    
    34   19   21 2    
    35   19   22 1    
    36   22   23 1    
    37   22   24 1    
    38   22   36 1    
@<TRIPOS>SUBSTRUCTURE
     1 UNK         1 GROUP             0       ****    0 ROOT    
