@<TRIPOS>MOLECULE
234
38   40    1
SMALL
USER_CHARGES


@<TRIPOS>ATOM
      1 O1         27.5728    1.5601  -11.1459 O.3       1 UNK         0.0000 
      2 C2         27.1536    0.3088  -11.6552 C.3       1 UNK         0.0000 
      3 C3         26.5252    0.3787  -13.0559 C.3       1 UNK         0.0000 
      4 C4         25.0351    0.5810  -12.8466 C.3       1 UNK         0.0000 
      5 C5         24.8123   -0.0916  -11.5082 C.ar      1 UNK         0.0000 
      6 C6         26.0213   -0.2538  -10.8166 C.ar      1 UNK         0.0000 
      7 C7         26.0217   -0.7899   -9.5190 C.ar      1 UNK         0.0000 
      8 C8         24.8061   -1.1035   -8.9088 C.ar      1 UNK         0.0000 
      9 C9         23.6060   -0.9317   -9.5917 C.ar      1 UNK         0.0000 
     10 C10        23.6085   -0.4312  -10.8990 C.ar      1 UNK         0.0000 
     11 O11        22.4887   -0.2465  -11.6759 O.3       1 UNK         0.0000 
     12 C12        21.2536   -0.5375  -11.1765 C.ar      1 UNK         0.0000 
     13 C13        20.6850   -1.7900  -11.3895 C.ar      1 UNK         0.0000 
     14 C14        19.4306   -2.0624  -10.8562 C.ar      1 UNK         0.0000 
     15 Cl15       18.6842   -3.5700  -11.0979 Cl        1 UNK         0.0000 
     16 C16        18.7499   -1.1042  -10.1192 C.ar      1 UNK         0.0000 
     17 C17        19.2995    0.1632   -9.9426 C.ar      1 UNK         0.0000 
     18 C18        18.5790    1.1976   -9.2292 C.1       1 UNK         0.0000 
     19 C19        20.5645    0.4307  -10.4478 C.ar      1 UNK         0.0000 
     20 S20        27.5212   -1.0658   -8.5765 S.o2      1 UNK         0.0000 
     21 O21        27.2091   -1.9751   -7.4734 O.2       1 UNK         0.0000 
     22 O22        28.6014   -1.4067   -9.5003 O.2       1 UNK         0.0000 
     23 C23        27.9046    0.6147   -7.8636 C.3       1 UNK         0.0000 
     24 F24        27.0583    1.3232  -13.8300 F         1 UNK         0.0000 
     25 F25        26.6754   -0.7993  -13.6647 F         1 UNK         0.0000 
     26 N26        18.0104    2.0266   -8.6666 N.1       1 UNK         0.0000 
     27 H27        28.3370    1.8866  -11.6617 H         1 UNK         0.0000 
     28 H28        28.0013   -0.3730  -11.7036 H         1 UNK         0.0000 
     29 H29        24.4365    0.1828  -13.6670 H         1 UNK         0.0000 
     30 H30        24.7950    1.6418  -12.7665 H         1 UNK         0.0000 
     31 H31        24.7820   -1.4948   -7.9039 H         1 UNK         0.0000 
     32 H32        22.6892   -1.2153   -9.0980 H         1 UNK         0.0000 
     33 H33        21.2216   -2.5514  -11.9357 H         1 UNK         0.0000 
     34 H34        17.8153   -1.3857   -9.6829 H         1 UNK         0.0000 
     35 H35        21.0238    1.3833  -10.2559 H         1 UNK         0.0000 
     36 H36        28.8492    0.5007   -7.3454 H         1 UNK         0.0000 
     37 H37        27.1052    0.9088   -7.1861 H         1 UNK         0.0000 
     38 H38        28.0235    1.3382   -8.6638 H         1 UNK         0.0000 
@<TRIPOS>BOND
     1    1    2 1    
     2    1   27 1    
     3    2    3 1    
     4    2    6 1    
     5    2   28 1    
     6    3    4 1    
     7    3   24 1    
     8    3   25 1    
     9    4    5 1    
    10    4   29 1    
    11    4   30 1    
    12    5    6 ar   
    13    5   10 ar   
    14    6    7 ar   
    15    7    8 ar   
    16    7   20 1    
    17    8    9 ar   
    18    8   31 1    
    19    9   10 ar   
    20    9   32 1    
    21   10   11 1    
    22   11   12 1    
    23   12   13 ar   
    24   12   19 ar   
    25   13   14 ar   
    26   13   33 1    
    27   14   15 1    
    28   14   16 ar   
    29   16   17 ar   
    30   16   34 1    
    31   17   18 1    
    32   17   19 ar   
    33   18   26 3    
    34   19   35 1    
    35   20   21 2    
    36   20   22 2    
    37   20   23 1    
    38   23   36 1    
    39   23   37 1    
    40   23   38 1    
@<TRIPOS>SUBSTRUCTURE
     1 UNK         1 GROUP             0       ****    0 ROOT    
