@<TRIPOS>MOLECULE
164
39   41    1
SMALL
USER_CHARGES


@<TRIPOS>ATOM
      1 N1         27.6126   -0.7221  -11.8575 N.3       1 UNK         0.0000 
      2 C2         26.8627    0.4834  -11.6485 C.3       1 UNK         0.0000 
      3 C3         26.1047    0.9544  -12.9037 C.3       1 UNK         0.0000 
      4 C4         24.7399    0.3045  -12.8887 C.3       1 UNK         0.0000 
      5 C5         24.5521    0.0154  -11.4229 C.ar      1 UNK         0.0000 
      6 C6         25.7582    0.0913  -10.7061 C.ar      1 UNK         0.0000 
      7 C7         25.8158   -0.3193   -9.3720 C.ar      1 UNK         0.0000 
      8 C8         24.6669   -0.8401   -8.7767 C.ar      1 UNK         0.0000 
      9 C9         23.4728   -0.8983   -9.5001 C.ar      1 UNK         0.0000 
     10 C10        23.4127   -0.4346  -10.8069 C.ar      1 UNK         0.0000 
     11 O11        22.3203   -0.4472  -11.6365 O.3       1 UNK         0.0000 
     12 C12        21.0931   -0.6646  -11.1188 C.ar      1 UNK         0.0000 
     13 C13        20.5226   -1.9214  -11.2703 C.ar      1 UNK         0.0000 
     14 C14        19.2978   -2.1862  -10.6822 C.ar      1 UNK         0.0000 
     15 F15        18.7173   -3.3953  -10.8100 F         1 UNK         0.0000 
     16 C16        18.6466   -1.1917   -9.9592 C.ar      1 UNK         0.0000 
     17 C17        19.1729    0.0954   -9.8802 C.ar      1 UNK         0.0000 
     18 C18        18.4511    1.1750   -9.2307 C.1       1 UNK         0.0000 
     19 C19        20.4149    0.3549  -10.4427 C.ar      1 UNK         0.0000 
     20 S20        27.3832   -0.4357   -8.4930 S.o2      1 UNK         0.0000 
     21 O21        27.1650   -1.2520   -7.3169 O.2       1 UNK         0.0000 
     22 O22        28.4060   -0.7807   -9.4815 O.2       1 UNK         0.0000 
     23 C23        27.7560    1.2677   -7.8424 C.3       1 UNK         0.0000 
     24 F24        25.9199    2.2501  -12.6967 F         1 UNK         0.0000 
     25 F25        26.7393    0.7426  -14.0688 F         1 UNK         0.0000 
     26 N26        17.8847    2.0403   -8.7170 N.1       1 UNK         0.0000 
     27 H27        28.4254   -0.5246  -12.4360 H         1 UNK         0.0000 
     28 H28        27.9605   -1.1018  -10.9738 H         1 UNK         0.0000 
     29 H29        27.4864    1.2911  -11.3381 H         1 UNK         0.0000 
     30 H30        24.7677   -0.6258  -13.4628 H         1 UNK         0.0000 
     31 H31        23.9668    0.9440  -13.3228 H         1 UNK         0.0000 
     32 H32        24.7064   -1.2424   -7.7690 H         1 UNK         0.0000 
     33 H33        22.6069   -1.3623   -9.0644 H         1 UNK         0.0000 
     34 H34        21.0440   -2.6868  -11.8270 H         1 UNK         0.0000 
     35 H35        17.7233   -1.4644   -9.4868 H         1 UNK         0.0000 
     36 H36        20.8568    1.3336  -10.3269 H         1 UNK         0.0000 
     37 H37        28.7359    1.1864   -7.3802 H         1 UNK         0.0000 
     38 H38        27.0414    1.4910   -7.0641 H         1 UNK         0.0000 
     39 H39        27.7898    1.9666   -8.6384 H         1 UNK         0.0000 
@<TRIPOS>BOND
     1    1    2 1    
     2    1   27 1    
     3    1   28 1    
     4    2    3 1    
     5    2    6 1    
     6    2   29 1    
     7    3    4 1    
     8    3   24 1    
     9    3   25 1    
    10    4    5 1    
    11    4   30 1    
    12    4   31 1    
    13    5    6 ar   
    14    5   10 ar   
    15    6    7 ar   
    16    7    8 ar   
    17    7   20 1    
    18    8    9 ar   
    19    8   32 1    
    20    9   10 ar   
    21    9   33 1    
    22   10   11 1    
    23   11   12 1    
    24   12   13 ar   
    25   12   19 ar   
    26   13   14 ar   
    27   13   34 1    
    28   14   15 1    
    29   14   16 ar   
    30   16   17 ar   
    31   16   35 1    
    32   17   18 1    
    33   17   19 ar   
    34   18   26 3    
    35   19   36 1    
    36   20   21 2    
    37   20   22 2    
    38   20   23 1    
    39   23   37 1    
    40   23   38 1    
    41   23   39 1    
@<TRIPOS>SUBSTRUCTURE
     1 UNK         1 GROUP             0       ****    0 ROOT    
