@<TRIPOS>MOLECULE
43
34   35    1
SMALL
USER_CHARGES


@<TRIPOS>ATOM
      1 C1         27.3206    0.2092  -11.5444 C.3       1 UNK         0.0000 
      2 C2         24.8104   -0.0377  -11.5023 C.ar      1 UNK         0.0000 
      3 C3         26.0342   -0.2249  -10.8317 C.ar      1 UNK         0.0000 
      4 C4         26.0391   -0.7726   -9.5293 C.ar      1 UNK         0.0000 
      5 C5         24.8129   -1.0870   -8.9213 C.ar      1 UNK         0.0000 
      6 C6         23.6118   -0.9391   -9.6083 C.ar      1 UNK         0.0000 
      7 C7         23.6108   -0.4248  -10.9220 C.ar      1 UNK         0.0000 
      8 O8         22.4761   -0.3049  -11.6918 O.3       1 UNK         0.0000 
      9 C9         21.2375   -0.5838  -11.1900 C.ar      1 UNK         0.0000 
     10 C10        20.6642   -1.8394  -11.3980 C.ar      1 UNK         0.0000 
     11 C11        19.4099   -2.1222  -10.8637 C.ar      1 UNK         0.0000 
     12 C12        18.7315   -1.1370  -10.1413 C.ar      1 UNK         0.0000 
     13 C13        19.2646    0.1136   -9.9710 C.ar      1 UNK         0.0000 
     14 C14        18.5795    1.1649   -9.2431 C.1       1 UNK         0.0000 
     15 C15        20.5604    0.4002  -10.4797 C.ar      1 UNK         0.0000 
     16 S16        27.5401   -1.0912   -8.5545 S.o2      1 UNK         0.0000 
     17 O17        27.1859   -2.0084   -7.4841 O.2       1 UNK         0.0000 
     18 O18        28.6206   -1.4509   -9.4586 O.2       1 UNK         0.0000 
     19 C19        27.9627    0.5938   -7.7916 C.3       1 UNK         0.0000 
     20 F20        27.7984    1.5671   -8.6677 F         1 UNK         0.0000 
     21 F21        27.0861    0.7983   -6.7353 F         1 UNK         0.0000 
     22 Cl22       24.7409    0.7017  -13.0762 Cl        1 UNK         0.0000 
     23 O23        27.6879    1.5242  -11.1857 O.3       1 UNK         0.0000 
     24 N24        18.0013    1.9953   -8.6849 N.1       1 UNK         0.0000 
     25 H25        28.1313   -0.4949  -11.3851 H         1 UNK         0.0000 
     26 H26        27.2003    0.1946  -12.6299 H         1 UNK         0.0000 
     27 H27        24.7742   -1.4735   -7.9133 H         1 UNK         0.0000 
     28 H28        22.6888   -1.2338   -9.1280 H         1 UNK         0.0000 
     29 H29        21.2029   -2.5876  -11.9606 H         1 UNK         0.0000 
     30 H30        18.9769   -3.1014  -11.0060 H         1 UNK         0.0000 
     31 H31        17.7565   -1.3858   -9.7173 H         1 UNK         0.0000 
     32 H32        21.0066    1.3603  -10.3264 H         1 UNK         0.0000 
     33 H33        28.9730    0.5924   -7.4558 H         1 UNK         0.0000 
     34 H34        28.4959    1.7705  -11.6621 H         1 UNK         0.0000 
@<TRIPOS>BOND
     1    1    3 1    
     2    1   23 1    
     3    1   25 1    
     4    1   26 1    
     5    2    3 ar   
     6    2    7 ar   
     7    2   22 1    
     8    3    4 ar   
     9    4    5 ar   
    10    4   16 1    
    11    5    6 ar   
    12    5   27 1    
    13    6    7 ar   
    14    6   28 1    
    15    7    8 1    
    16    8    9 1    
    17    9   10 ar   
    18    9   15 ar   
    19   10   11 ar   
    20   10   29 1    
    21   11   12 ar   
    22   11   30 1    
    23   12   13 ar   
    24   12   31 1    
    25   13   14 1    
    26   13   15 ar   
    27   14   24 3    
    28   15   32 1    
    29   16   17 2    
    30   16   18 2    
    31   16   19 1    
    32   19   20 1    
    33   19   21 1    
    34   19   33 1    
    35   23   34 1    
@<TRIPOS>SUBSTRUCTURE
     1 UNK         1 GROUP             0       ****    0 ROOT    
