@<TRIPOS>MOLECULE
254
40   42    1
SMALL
USER_CHARGES


@<TRIPOS>ATOM
      1 O1         27.5290    1.5702  -11.4140 O.3       1 UNK         0.0000 
      2 C2         27.1452    0.2616  -11.7016 C.3       1 UNK         0.0000 
      3 C3         26.5035    0.3509  -13.0777 C.3       1 UNK         0.0000 
      4 C4         25.0278    0.6163  -12.8283 C.3       1 UNK         0.0000 
      5 C5         24.8030   -0.0491  -11.4879 C.ar      1 UNK         0.0000 
      6 C6         26.0132   -0.2224  -10.8071 C.ar      1 UNK         0.0000 
      7 C7         26.0189   -0.7643   -9.5084 C.ar      1 UNK         0.0000 
      8 C8         24.8007   -1.0836   -8.9010 C.ar      1 UNK         0.0000 
      9 C9         23.6021   -0.9380   -9.5968 C.ar      1 UNK         0.0000 
     10 C10        23.6010   -0.4271  -10.9002 C.ar      1 UNK         0.0000 
     11 O11        22.4865   -0.2951  -11.6981 O.3       1 UNK         0.0000 
     12 C12        21.2462   -0.5782  -11.2011 C.ar      1 UNK         0.0000 
     13 C13        20.6750   -1.8342  -11.4016 C.ar      1 UNK         0.0000 
     14 C14        19.4231   -2.1130  -10.8638 C.ar      1 UNK         0.0000 
     15 F15        18.8605   -3.3235  -11.0484 F         1 UNK         0.0000 
     16 C16        18.7415   -1.1394  -10.1398 C.ar      1 UNK         0.0000 
     17 C17        19.2943    0.1296   -9.9653 C.ar      1 UNK         0.0000 
     18 C18        18.5740    1.1648   -9.2440 C.1       1 UNK         0.0000 
     19 C19        20.5558    0.3964  -10.4841 C.ar      1 UNK         0.0000 
     20 S20        27.5377   -1.0695   -8.5948 S.o2      1 UNK         0.0000 
     21 O21        27.2346   -2.0117   -7.5154 O.2       1 UNK         0.0000 
     22 O22        28.5882   -1.4038   -9.5540 O.2       1 UNK         0.0000 
     23 N23        27.9451    0.4615   -7.8301 N.pl3     1 UNK         0.0000 
     24 F24        27.0549    1.2897  -13.8570 F         1 UNK         0.0000 
     25 F25        26.6287   -0.8235  -13.6847 F         1 UNK         0.0000 
     26 N26        18.0045    1.9857   -8.6629 N.1       1 UNK         0.0000 
     27 C27        28.5002    1.5466   -8.6218 C.3       1 UNK         0.0000 
     28 H28        28.4232    1.7635  -11.7473 H         1 UNK         0.0000 
     29 H29        27.9845   -0.4335  -11.6910 H         1 UNK         0.0000 
     30 H30        24.4120    0.1762  -13.6053 H         1 UNK         0.0000 
     31 H31        24.8119    1.6889  -12.7872 H         1 UNK         0.0000 
     32 H32        24.7814   -1.4584   -7.8884 H         1 UNK         0.0000 
     33 H33        22.6799   -1.2369   -9.1253 H         1 UNK         0.0000 
     34 H34        21.2052   -2.5946  -11.9528 H         1 UNK         0.0000 
     35 H35        17.7929   -1.3901   -9.7095 H         1 UNK         0.0000 
     36 H36        21.0125    1.3565  -10.3126 H         1 UNK         0.0000 
     37 H37        28.3572    0.4001   -6.9030 H         1 UNK         0.0000 
     38 H38        28.5305    2.4836   -8.0830 H         1 UNK         0.0000 
     39 H39        27.7869    1.7713   -9.3533 H         1 UNK         0.0000 
     40 H40        29.4618    1.2797   -9.0473 H         1 UNK         0.0000 
@<TRIPOS>BOND
     1    1    2 1    
     2    1   28 1    
     3    2    3 1    
     4    2    6 1    
     5    2   29 1    
     6    3    4 1    
     7    3   24 1    
     8    3   25 1    
     9    4    5 1    
    10    4   30 1    
    11    4   31 1    
    12    5    6 ar   
    13    5   10 ar   
    14    6    7 ar   
    15    7    8 ar   
    16    7   20 1    
    17    8    9 ar   
    18    8   32 1    
    19    9   10 ar   
    20    9   33 1    
    21   10   11 1    
    22   11   12 1    
    23   12   13 ar   
    24   12   19 ar   
    25   13   14 ar   
    26   13   34 1    
    27   14   15 1    
    28   14   16 ar   
    29   16   17 ar   
    30   16   35 1    
    31   17   18 1    
    32   17   19 ar   
    33   18   26 3    
    34   19   36 1    
    35   20   21 2    
    36   20   22 2    
    37   20   23 1    
    38   23   27 1    
    39   23   37 1    
    40   27   38 1    
    41   27   39 1    
    42   27   40 1    
@<TRIPOS>SUBSTRUCTURE
     1 UNK         1 GROUP             0       ****    0 ROOT    
