@<TRIPOS>MOLECULE
61
37   39    1
SMALL
USER_CHARGES


@<TRIPOS>ATOM
      1 O1         27.6141    1.5314  -11.1645 O.3       1 UNK         0.0000 
      2 C2         27.1537    0.2857  -11.6482 C.3       1 UNK         0.0000 
      3 C3         26.5383    0.4235  -13.0455 C.3       1 UNK         0.0000 
      4 C4         25.0405    0.6014  -12.8272 C.3       1 UNK         0.0000 
      5 C5         24.8079   -0.0680  -11.4919 C.ar      1 UNK         0.0000 
      6 C6         26.0128   -0.2402  -10.8022 C.ar      1 UNK         0.0000 
      7 C7         26.0160   -0.7777   -9.5061 C.ar      1 UNK         0.0000 
      8 C8         24.7980   -1.0852   -8.8991 C.ar      1 UNK         0.0000 
      9 C9         23.6016   -0.9305   -9.5931 C.ar      1 UNK         0.0000 
     10 C10        23.6009   -0.4247  -10.8990 C.ar      1 UNK         0.0000 
     11 O11        22.4839   -0.2869  -11.6927 O.3       1 UNK         0.0000 
     12 C12        21.2424   -0.5716  -11.1962 C.ar      1 UNK         0.0000 
     13 C13        20.6732   -1.8275  -11.4044 C.ar      1 UNK         0.0000 
     14 C14        19.4230   -2.1091  -10.8655 C.ar      1 UNK         0.0000 
     15 F15        18.8559   -3.3155  -11.0537 F         1 UNK         0.0000 
     16 C16        18.7437   -1.1402  -10.1389 C.ar      1 UNK         0.0000 
     17 C17        19.2905    0.1241   -9.9552 C.ar      1 UNK         0.0000 
     18 Cl18       18.4313    1.3474   -9.0928 Cl        1 UNK         0.0000 
     19 C19        20.5489    0.3957  -10.4700 C.ar      1 UNK         0.0000 
     20 S20        27.5325   -1.0709   -8.5888 S.o2      1 UNK         0.0000 
     21 O21        27.2354   -2.0179   -7.5103 O.2       1 UNK         0.0000 
     22 O22        28.5854   -1.4059   -9.5449 O.2       1 UNK         0.0000 
     23 C23        27.9315    0.6133   -7.8461 C.3       1 UNK         0.0000 
     24 F24        27.0964    0.8246   -6.8331 F         1 UNK         0.0000 
     25 H25        28.3683    1.8194  -11.7071 H         1 UNK         0.0000 
     26 H26        27.9719   -0.4315  -11.7022 H         1 UNK         0.0000 
     27 H27        26.6895   -0.4969  -13.6161 H         1 UNK         0.0000 
     28 H28        26.9723    1.2325  -13.6362 H         1 UNK         0.0000 
     29 H29        24.8029    1.6660  -12.7801 H         1 UNK         0.0000 
     30 H30        24.4290    0.1742  -13.6223 H         1 UNK         0.0000 
     31 H31        24.7779   -1.4665   -7.8901 H         1 UNK         0.0000 
     32 H32        22.6843   -1.2383   -9.1176 H         1 UNK         0.0000 
     33 H33        21.2051   -2.5890  -11.9516 H         1 UNK         0.0000 
     34 H34        17.8031   -1.3878   -9.7030 H         1 UNK         0.0000 
     35 H35        20.9911    1.3546  -10.2655 H         1 UNK         0.0000 
     36 H36        28.9528    0.5965   -7.4752 H         1 UNK         0.0000 
     37 H37        27.8095    1.3876   -8.6011 H         1 UNK         0.0000 
@<TRIPOS>BOND
     1    1    2 1    
     2    1   25 1    
     3    2    3 1    
     4    2    6 1    
     5    2   26 1    
     6    3    4 1    
     7    3   27 1    
     8    3   28 1    
     9    4    5 1    
    10    4   29 1    
    11    4   30 1    
    12    5    6 ar   
    13    5   10 ar   
    14    6    7 ar   
    15    7    8 ar   
    16    7   20 1    
    17    8    9 ar   
    18    8   31 1    
    19    9   10 ar   
    20    9   32 1    
    21   10   11 1    
    22   11   12 1    
    23   12   13 ar   
    24   12   19 ar   
    25   13   14 ar   
    26   13   33 1    
    27   14   15 1    
    28   14   16 ar   
    29   16   17 ar   
    30   16   34 1    
    31   17   18 1    
    32   17   19 ar   
    33   19   35 1    
    34   20   21 2    
    35   20   22 2    
    36   20   23 1    
    37   23   24 1    
    38   23   36 1    
    39   23   37 1    
@<TRIPOS>SUBSTRUCTURE
     1 UNK         1 GROUP             0       ****    0 ROOT    
