@<TRIPOS>MOLECULE
156
38   40    1
SMALL
USER_CHARGES


@<TRIPOS>ATOM
      1 O1         27.5805    1.5534  -11.2532 O.3       1 UNK         0.0000 
      2 C2         27.1501    0.2775  -11.6687 C.3       1 UNK         0.0000 
      3 C3         26.5293    0.4064  -13.0572 C.3       1 UNK         0.0000 
      4 C4         25.0376    0.6062  -12.8261 C.3       1 UNK         0.0000 
      5 C5         24.8055   -0.0621  -11.4896 C.ar      1 UNK         0.0000 
      6 C6         26.0115   -0.2357  -10.8045 C.ar      1 UNK         0.0000 
      7 C7         26.0133   -0.7776   -9.5085 C.ar      1 UNK         0.0000 
      8 C8         24.7953   -1.0889   -8.8985 C.ar      1 UNK         0.0000 
      9 C9         23.5968   -0.9351   -9.5925 C.ar      1 UNK         0.0000 
     10 C10        23.5998   -0.4290  -10.8992 C.ar      1 UNK         0.0000 
     11 O11        22.4856   -0.2941  -11.6969 O.3       1 UNK         0.0000 
     12 C12        21.2434   -0.5785  -11.2009 C.ar      1 UNK         0.0000 
     13 C13        20.6719   -1.8357  -11.4023 C.ar      1 UNK         0.0000 
     14 C14        19.4175   -2.1171  -10.8625 C.ar      1 UNK         0.0000 
     15 C15        18.7315   -1.1381  -10.1404 C.ar      1 UNK         0.0000 
     16 C16        19.2888    0.1333   -9.9695 C.ar      1 UNK         0.0000 
     17 C17        18.5741    1.1692   -9.2318 C.1       1 UNK         0.0000 
     18 C18        20.5530    0.4006  -10.4887 C.ar      1 UNK         0.0000 
     19 S19        27.5308   -1.0719   -8.5932 S.o2      1 UNK         0.0000 
     20 O20        27.2326   -2.0223   -7.5182 O.2       1 UNK         0.0000 
     21 O21        28.5832   -1.4111   -9.5503 O.2       1 UNK         0.0000 
     22 C22        27.9414    0.6033   -7.8192 C.3       1 UNK         0.0000 
     23 F23        27.8101    1.5688   -8.7107 F         1 UNK         0.0000 
     24 F24        27.0858    0.8173   -6.8182 F         1 UNK         0.0000 
     25 N25        18.0126    1.9813   -8.6297 N.1       1 UNK         0.0000 
     26 H26        28.3766    1.8137  -11.7472 H         1 UNK         0.0000 
     27 H27        27.9769   -0.4329  -11.6977 H         1 UNK         0.0000 
     28 H28        26.9654    1.2263  -13.6309 H         1 UNK         0.0000 
     29 H29        26.6920   -0.5061  -13.6310 H         1 UNK         0.0000 
     30 H30        24.4251    0.1733  -13.6149 H         1 UNK         0.0000 
     31 H31        24.8057    1.6727  -12.7825 H         1 UNK         0.0000 
     32 H32        24.7760   -1.4711   -7.8880 H         1 UNK         0.0000 
     33 H33        22.6732   -1.2370   -9.1205 H         1 UNK         0.0000 
     34 H34        21.2057   -2.5939  -11.9585 H         1 UNK         0.0000 
     35 H35        18.9791   -3.0947  -11.0040 H         1 UNK         0.0000 
     36 H36        17.7706   -1.3798   -9.7130 H         1 UNK         0.0000 
     37 H37        21.0174    1.3656  -10.3389 H         1 UNK         0.0000 
     38 H38        28.9665    0.5981   -7.4687 H         1 UNK         0.0000 
@<TRIPOS>BOND
     1    1    2 1    
     2    1   26 1    
     3    2    3 1    
     4    2    6 1    
     5    2   27 1    
     6    3    4 1    
     7    3   28 1    
     8    3   29 1    
     9    4    5 1    
    10    4   30 1    
    11    4   31 1    
    12    5    6 ar   
    13    5   10 ar   
    14    6    7 ar   
    15    7    8 ar   
    16    7   19 1    
    17    8    9 ar   
    18    8   32 1    
    19    9   10 ar   
    20    9   33 1    
    21   10   11 1    
    22   11   12 1    
    23   12   13 ar   
    24   12   18 ar   
    25   13   14 ar   
    26   13   34 1    
    27   14   15 ar   
    28   14   35 1    
    29   15   16 ar   
    30   15   36 1    
    31   16   17 1    
    32   16   18 ar   
    33   17   25 3    
    34   18   37 1    
    35   19   20 2    
    36   19   21 2    
    37   19   22 1    
    38   22   23 1    
    39   22   24 1    
    40   22   38 1    
@<TRIPOS>SUBSTRUCTURE
     1 UNK         1 GROUP             0       ****    0 ROOT    
