@<TRIPOS>MOLECULE
206
41   43    1
SMALL
USER_CHARGES


@<TRIPOS>ATOM
      1 O1         27.8905    0.7814  -11.2833 O.3       1 UNK         0.0000 
      2 C2         26.9193   -0.0282  -11.8984 C.3       1 UNK         0.0000 
      3 C3         26.2553    0.6485  -13.1070 C.3       1 UNK         0.0000 
      4 C4         24.7743    0.3619  -13.0634 C.3       1 UNK         0.0000 
      5 C5         24.5513   -0.0833  -11.6435 C.ar      1 UNK         0.0000 
      6 C6         25.7571   -0.3137  -10.9611 C.ar      1 UNK         0.0000 
      7 C7         25.7304   -0.7838   -9.6350 C.ar      1 UNK         0.0000 
      8 C8         24.4955   -0.9388   -8.9991 C.ar      1 UNK         0.0000 
      9 C9         23.3088   -0.7555   -9.6942 C.ar      1 UNK         0.0000 
     10 C10        23.3376   -0.3678  -11.0366 C.ar      1 UNK         0.0000 
     11 O11        22.2312   -0.2289  -11.8473 O.3       1 UNK         0.0000 
     12 C12        21.0019   -0.5424  -11.3497 C.ar      1 UNK         0.0000 
     13 C13        20.5026   -1.8363  -11.4599 C.ar      1 UNK         0.0000 
     14 C14        19.3111   -2.1637  -10.8207 C.ar      1 UNK         0.0000 
     15 F15        18.8034   -3.4051  -10.9256 F         1 UNK         0.0000 
     16 C16        18.6360   -1.2092  -10.0655 C.ar      1 UNK         0.0000 
     17 C17        19.1032    0.1048  -10.0073 C.ar      1 UNK         0.0000 
     18 C18        18.4198    1.1400   -9.2611 C.1       1 UNK         0.0000 
     19 C19        20.2891    0.4299  -10.6551 C.ar      1 UNK         0.0000 
     20 S20        27.1782   -1.3347   -8.7177 S.o2      1 UNK         0.0000 
     21 O21        26.7390   -2.4320   -7.8613 O.2       1 UNK         0.0000 
     22 O22        28.2843   -1.5524   -9.6512 O.2       1 UNK         0.0000 
     23 C23        27.6153    0.0506   -7.5323 C.3       1 UNK         0.0000 
     24 F24        26.3933    1.9664  -13.0190 F         1 UNK         0.0000 
     25 F25        26.7651    0.2478  -14.2653 F         1 UNK         0.0000 
     26 N26        17.8859    1.9702   -8.6637 N.1       1 UNK         0.0000 
     27 C27        28.2838    1.1998   -8.2640 C.3       1 UNK         0.0000 
     28 H28        28.4344    1.2213  -11.9476 H         1 UNK         0.0000 
     29 H29        27.3623   -0.9733  -12.2077 H         1 UNK         0.0000 
     30 H30        24.5370   -0.4389  -13.7581 H         1 UNK         0.0000 
     31 H31        24.1815    1.2313  -13.3494 H         1 UNK         0.0000 
     32 H32        24.4471   -1.2650   -7.9726 H         1 UNK         0.0000 
     33 H33        22.3722   -0.9488   -9.1964 H         1 UNK         0.0000 
     34 H34        21.0600   -2.5906  -11.9949 H         1 UNK         0.0000 
     35 H35        17.7638   -1.5211   -9.5283 H         1 UNK         0.0000 
     36 H36        20.6808    1.4261  -10.5650 H         1 UNK         0.0000 
     37 H37        26.6995    0.3531   -7.0244 H         1 UNK         0.0000 
     38 H38        28.2860   -0.3848   -6.7955 H         1 UNK         0.0000 
     39 H39        28.6278    1.9639   -7.5645 H         1 UNK         0.0000 
     40 H40        27.5819    1.6805   -8.9401 H         1 UNK         0.0000 
     41 H41        29.1450    0.8679   -8.8468 H         1 UNK         0.0000 
@<TRIPOS>BOND
     1    1    2 1    
     2    1   28 1    
     3    2    3 1    
     4    2    6 1    
     5    2   29 1    
     6    3    4 1    
     7    3   24 1    
     8    3   25 1    
     9    4    5 1    
    10    4   30 1    
    11    4   31 1    
    12    5    6 ar   
    13    5   10 ar   
    14    6    7 ar   
    15    7    8 ar   
    16    7   20 1    
    17    8    9 ar   
    18    8   32 1    
    19    9   10 ar   
    20    9   33 1    
    21   10   11 1    
    22   11   12 1    
    23   12   13 ar   
    24   12   19 ar   
    25   13   14 ar   
    26   13   34 1    
    27   14   15 1    
    28   14   16 ar   
    29   16   17 ar   
    30   16   35 1    
    31   17   18 1    
    32   17   19 ar   
    33   18   26 3    
    34   19   36 1    
    35   20   21 2    
    36   20   22 2    
    37   20   23 1    
    38   23   27 1    
    39   23   37 1    
    40   23   38 1    
    41   27   39 1    
    42   27   40 1    
    43   27   41 1    
@<TRIPOS>SUBSTRUCTURE
     1 UNK         1 GROUP             0       ****    0 ROOT    
