@<TRIPOS>MOLECULE
338
37   39    1
SMALL
USER_CHARGES


@<TRIPOS>ATOM
      1 O1         27.6451    1.5396  -11.1263 O.3       1 UNK         0.0000 
      2 C2         27.1573    0.3054  -11.6394 C.3       1 UNK         0.0000 
      3 C3         26.5145    0.3811  -13.0370 C.3       1 UNK         0.0000 
      4 C4         25.0296    0.6292  -12.8066 C.3       1 UNK         0.0000 
      5 C5         24.8033   -0.0375  -11.4699 C.ar      1 UNK         0.0000 
      6 C6         26.0149   -0.2195  -10.7892 C.ar      1 UNK         0.0000 
      7 C7         26.0208   -0.7620   -9.4965 C.ar      1 UNK         0.0000 
      8 C8         24.8017   -1.0822   -8.8969 C.ar      1 UNK         0.0000 
      9 C9         23.6059   -0.9366   -9.5941 C.ar      1 UNK         0.0000 
     10 C10        23.6020   -0.4342  -10.9000 C.ar      1 UNK         0.0000 
     11 O11        22.4861   -0.2954  -11.6940 O.3       1 UNK         0.0000 
     12 C12        21.2424   -0.5775  -11.1970 C.ar      1 UNK         0.0000 
     13 C13        20.6737   -1.8297  -11.4038 C.ar      1 UNK         0.0000 
     14 C14        19.4234   -2.1113  -10.8674 C.ar      1 UNK         0.0000 
     15 F15        18.8511   -3.3118  -11.0589 F         1 UNK         0.0000 
     16 C16        18.7462   -1.1423  -10.1427 C.ar      1 UNK         0.0000 
     17 C17        19.2860    0.1245   -9.9701 C.ar      1 UNK         0.0000 
     18 C18        18.5760    1.1643   -9.2539 C.1       1 UNK         0.0000 
     19 C19        20.5501    0.3903  -10.4736 C.ar      1 UNK         0.0000 
     20 S20        27.5283   -1.0639   -8.5710 S.o2      1 UNK         0.0000 
     21 O21        27.2110   -1.9989   -7.4925 O.2       1 UNK         0.0000 
     22 O22        28.6000   -1.3708   -9.5178 O.2       1 UNK         0.0000 
     23 F23        27.0777    1.2809  -13.8505 F         1 UNK         0.0000 
     24 N24        18.0176    1.9927   -8.6784 N.1       1 UNK         0.0000 
     25 F25        24.8400    1.9615  -12.6525 F         1 UNK         0.0000 
     26 F26        26.6372   -0.7929  -13.6486 F         1 UNK         0.0000 
     27 N27        27.9360    0.4657   -7.8636 N.pl3     1 UNK         0.0000 
     28 H28        28.3611    1.8550  -11.6954 H         1 UNK         0.0000 
     29 H29        27.9701   -0.4195  -11.7119 H         1 UNK         0.0000 
     30 H30        24.3886    0.2707  -13.6271 H         1 UNK         0.0000 
     31 H31        24.7736   -1.4789   -7.8939 H         1 UNK         0.0000 
     32 H32        22.6914   -1.2459   -9.1138 H         1 UNK         0.0000 
     33 H33        21.2074   -2.5951  -11.9425 H         1 UNK         0.0000 
     34 H34        17.8099   -1.4198   -9.7083 H         1 UNK         0.0000 
     35 H35        21.0016    1.3428  -10.2620 H         1 UNK         0.0000 
     36 H36        27.2694    0.7696   -7.1547 H         1 UNK         0.0000 
     37 H37        28.1746    1.1824   -8.5552 H         1 UNK         0.0000 
@<TRIPOS>BOND
     1    1    2 1    
     2    1   28 1    
     3    2    3 1    
     4    2    6 1    
     5    2   29 1    
     6    3    4 1    
     7    3   23 1    
     8    3   26 1    
     9    4    5 1    
    10    4   25 1    
    11    4   30 1    
    12    5    6 ar   
    13    5   10 ar   
    14    6    7 ar   
    15    7    8 ar   
    16    7   20 1    
    17    8    9 ar   
    18    8   31 1    
    19    9   10 ar   
    20    9   32 1    
    21   10   11 1    
    22   11   12 1    
    23   12   13 ar   
    24   12   19 ar   
    25   13   14 ar   
    26   13   33 1    
    27   14   15 1    
    28   14   16 ar   
    29   16   17 ar   
    30   16   34 1    
    31   17   18 1    
    32   17   19 ar   
    33   18   24 3    
    34   19   35 1    
    35   20   21 2    
    36   20   22 2    
    37   20   27 1    
    38   27   36 1    
    39   27   37 1    
@<TRIPOS>SUBSTRUCTURE
     1 UNK         1 GROUP             0       ****    0 ROOT    
