@<TRIPOS>MOLECULE
290
39   41    1
SMALL
USER_CHARGES


@<TRIPOS>ATOM
      1 N1         27.5740    1.5625  -11.2291 N.3       1 UNK         0.0000 
      2 C2         27.1541    0.2576  -11.6910 C.3       1 UNK         0.0000 
      3 C3         26.5095    0.3461  -13.0777 C.3       1 UNK         0.0000 
      4 C4         25.0290    0.5954  -12.8450 C.3       1 UNK         0.0000 
      5 C5         24.8037   -0.0602  -11.4984 C.ar      1 UNK         0.0000 
      6 C6         26.0092   -0.2240  -10.8090 C.ar      1 UNK         0.0000 
      7 C7         26.0109   -0.7777   -9.5207 C.ar      1 UNK         0.0000 
      8 C8         24.7959   -1.0889   -8.9045 C.ar      1 UNK         0.0000 
      9 C9         23.5992   -0.9223   -9.5915 C.ar      1 UNK         0.0000 
     10 C10        23.5984   -0.4194  -10.8961 C.ar      1 UNK         0.0000 
     11 O11        22.4824   -0.2843  -11.6898 O.3       1 UNK         0.0000 
     12 C12        21.2448   -0.5748  -11.1956 C.ar      1 UNK         0.0000 
     13 C13        20.6740   -1.8289  -11.4024 C.ar      1 UNK         0.0000 
     14 C14        19.4243   -2.1094  -10.8700 C.ar      1 UNK         0.0000 
     15 F15        18.8514   -3.3146  -11.0611 F         1 UNK         0.0000 
     16 C16        18.7414   -1.1444  -10.1434 C.ar      1 UNK         0.0000 
     17 C17        19.2871    0.1244   -9.9694 C.ar      1 UNK         0.0000 
     18 C18        18.5764    1.1678   -9.2409 C.1       1 UNK         0.0000 
     19 C19        20.5463    0.3914  -10.4687 C.ar      1 UNK         0.0000 
     20 S20        27.5079   -1.0807   -8.5946 S.o2      1 UNK         0.0000 
     21 O21        28.5661   -1.4034   -9.5526 O.2       1 UNK         0.0000 
     22 O22        27.2082   -2.0475   -7.5362 O.2       1 UNK         0.0000 
     23 C23        27.8937    0.5866   -7.7878 C.3       1 UNK         0.0000 
     24 F24        27.0532    1.2780  -13.8693 F         1 UNK         0.0000 
     25 F25        26.6434   -0.8310  -13.6723 F         1 UNK         0.0000 
     26 N26        18.0158    1.9913   -8.6668 N.1       1 UNK         0.0000 
     27 F27        29.1657    0.5265   -7.4607 F         1 UNK         0.0000 
     28 F28        27.7528    1.6123   -8.6183 F         1 UNK         0.0000 
     29 F29        27.1110    0.7689   -6.7327 F         1 UNK         0.0000 
     30 H30        28.0811    1.4599  -10.3770 H         1 UNK         0.0000 
     31 H31        28.2888    1.9365  -11.8603 H         1 UNK         0.0000 
     32 H32        28.0018   -0.4423  -11.7297 H         1 UNK         0.0000 
     33 H33        24.4058    0.1882  -13.6467 H         1 UNK         0.0000 
     34 H34        24.8104    1.6599  -12.7803 H         1 UNK         0.0000 
     35 H35        24.7747   -1.4836   -7.9003 H         1 UNK         0.0000 
     36 H36        22.6851   -1.2365   -9.1107 H         1 UNK         0.0000 
     37 H37        21.2092   -2.5946  -11.9437 H         1 UNK         0.0000 
     38 H38        17.8072   -1.4207   -9.7067 H         1 UNK         0.0000 
     39 H39        21.0053    1.3469  -10.2638 H         1 UNK         0.0000 
@<TRIPOS>BOND
     1    1    2 1    
     2    1   30 1    
     3    1   31 1    
     4    2    3 1    
     5    2    6 1    
     6    2   32 1    
     7    3    4 1    
     8    3   24 1    
     9    3   25 1    
    10    4    5 1    
    11    4   33 1    
    12    4   34 1    
    13    5    6 ar   
    14    5   10 ar   
    15    6    7 ar   
    16    7    8 ar   
    17    7   20 1    
    18    8    9 ar   
    19    8   35 1    
    20    9   10 ar   
    21    9   36 1    
    22   10   11 1    
    23   11   12 1    
    24   12   13 ar   
    25   12   19 ar   
    26   13   14 ar   
    27   13   37 1    
    28   14   15 1    
    29   14   16 ar   
    30   16   17 ar   
    31   16   38 1    
    32   17   18 1    
    33   17   19 ar   
    34   18   26 3    
    35   19   39 1    
    36   20   21 2    
    37   20   22 2    
    38   20   23 1    
    39   23   27 1    
    40   23   28 1    
    41   23   29 1    
@<TRIPOS>SUBSTRUCTURE
     1 UNK         1 GROUP             0       ****    0 ROOT    
