@<TRIPOS>MOLECULE
7a
40   42    1
SMALL
USER_CHARGES


@<TRIPOS>ATOM
      1 O1         27.8986    1.1686  -10.8159 O.3       1 UNK         0.0000 
      2 C2         27.3063    0.0821  -11.4967 C.3       1 UNK         0.0000 
      3 C3         26.7543    0.5309  -12.8435 C.3       1 UNK         0.0000 
      4 C4         25.2972    0.0902  -12.9073 C.3       1 UNK         0.0000 
      5 C5         24.9356   -0.2719  -11.4777 C.ar      1 UNK         0.0000 
      6 C6         26.1058   -0.4336  -10.7289 C.ar      1 UNK         0.0000 
      7 C7         26.0415   -0.9623   -9.4361 C.ar      1 UNK         0.0000 
      8 C8         24.8001   -1.2235   -8.8639 C.ar      1 UNK         0.0000 
      9 C9         23.6290   -0.9777   -9.5693 C.ar      1 UNK         0.0000 
     10 C10        23.6838   -0.5129  -10.8898 C.ar      1 UNK         0.0000 
     11 O11        22.5621   -0.2401  -11.6444 O.3       1 UNK         0.0000 
     12 C12        21.3109   -0.5861  -11.1952 C.ar      1 UNK         0.0000 
     13 C13        20.8154   -1.8606  -11.4562 C.ar      1 UNK         0.0000 
     14 C14        19.5537   -2.2243  -11.0029 C.ar      1 UNK         0.0000 
     15 F15        19.0721   -3.4508  -11.2863 F         1 UNK         0.0000 
     16 C16        18.7894   -1.3253  -10.2644 C.ar      1 UNK         0.0000 
     17 C17        19.2720   -0.0424  -10.0060 C.ar      1 UNK         0.0000 
     18 Cl18       18.3130    1.0837   -9.1138 Cl        1 UNK         0.0000 
     19 C19        20.5312    0.3270  -10.4759 C.ar      1 UNK         0.0000 
     20 S20        27.5140   -1.2559   -8.4651 S.o2      1 UNK         0.0000 
     21 O21        27.1933   -2.2794   -7.4639 O.2       1 UNK         0.0000 
     22 O22        28.6255   -1.4828   -9.3950 O.2       1 UNK         0.0000 
     23 C23        27.7388    0.4232   -7.6234 C.3       1 UNK         0.0000 
     24 F24        27.7231    1.3759   -8.5583 F         1 UNK         0.0000 
     25 F25        26.7479    0.5754   -6.7503 F         1 UNK         0.0000 
     26 C26        24.4377    1.1669  -13.5390 C.3       1 UNK         0.0000 
     27 H27        28.6114    1.5312  -11.3627 H         1 UNK         0.0000 
     28 H28        28.0280   -0.7165  -11.6685 H         1 UNK         0.0000 
     29 H29        26.8240    1.6206  -12.9191 H         1 UNK         0.0000 
     30 H30        27.3250    0.1428  -13.6861 H         1 UNK         0.0000 
     31 H31        25.2257   -0.8173  -13.5111 H         1 UNK         0.0000 
     32 H32        24.7387   -1.6083   -7.8634 H         1 UNK         0.0000 
     33 H33        22.6833   -1.1799   -9.0869 H         1 UNK         0.0000 
     34 H34        21.4160   -2.5775  -11.9946 H         1 UNK         0.0000 
     35 H35        17.8284   -1.6333   -9.8958 H         1 UNK         0.0000 
     36 H36        20.9029    1.3142  -10.2637 H         1 UNK         0.0000 
     37 H37        28.6860    0.4534   -7.0836 H         1 UNK         0.0000 
     38 H38        23.4853    0.7664  -13.8251 H         1 UNK         0.0000 
     39 H39        24.8788    1.5661  -14.4435 H         1 UNK         0.0000 
     40 H40        24.2853    1.9768  -12.8310 H         1 UNK         0.0000 
@<TRIPOS>BOND
     1    1    2 1    
     2    1   27 1    
     3    2    3 1    
     4    2    6 1    
     5    2   28 1    
     6    3    4 1    
     7    3   29 1    
     8    3   30 1    
     9    4    5 1    
    10    4   26 1    
    11    4   31 1    
    12    5    6 ar   
    13    5   10 ar   
    14    6    7 ar   
    15    7    8 ar   
    16    7   20 1    
    17    8    9 ar   
    18    8   32 1    
    19    9   10 ar   
    20    9   33 1    
    21   10   11 1    
    22   11   12 1    
    23   12   13 ar   
    24   12   19 ar   
    25   13   14 ar   
    26   13   34 1    
    27   14   15 1    
    28   14   16 ar   
    29   16   17 ar   
    30   16   35 1    
    31   17   18 1    
    32   17   19 ar   
    33   19   36 1    
    34   20   21 2    
    35   20   22 2    
    36   20   23 1    
    37   23   24 1    
    38   23   25 1    
    39   23   37 1    
    40   26   38 1    
    41   26   39 1    
    42   26   40 1    
@<TRIPOS>SUBSTRUCTURE
     1 UNK         1 GROUP             0       ****    0 ROOT    
