@<TRIPOS>MOLECULE
251
39   41    1
SMALL
USER_CHARGES


@<TRIPOS>ATOM
      1 O1         27.4945    1.5901  -11.4326 O.3       1 UNK         0.0000 
      2 C2         27.1374    0.2686  -11.7191 C.3       1 UNK         0.0000 
      3 C3         26.4953    0.3323  -13.0981 C.3       1 UNK         0.0000 
      4 C4         25.0217    0.5994  -12.8429 C.3       1 UNK         0.0000 
      5 C5         24.8020   -0.0597  -11.4964 C.ar      1 UNK         0.0000 
      6 C6         26.0153   -0.2255  -10.8167 C.ar      1 UNK         0.0000 
      7 C7         26.0241   -0.7593   -9.5118 C.ar      1 UNK         0.0000 
      8 C8         24.8061   -1.0787   -8.9024 C.ar      1 UNK         0.0000 
      9 C9         23.6060   -0.9317   -9.5932 C.ar      1 UNK         0.0000 
     10 C10        23.6016   -0.4258  -10.8989 C.ar      1 UNK         0.0000 
     11 O11        22.4847   -0.2873  -11.6913 O.3       1 UNK         0.0000 
     12 C12        21.2447   -0.5730  -11.1948 C.ar      1 UNK         0.0000 
     13 C13        20.5522    0.3978  -10.4720 C.ar      1 UNK         0.0000 
     14 C14        19.2931    0.1248   -9.9600 C.ar      1 UNK         0.0000 
     15 F15        18.6203    1.0830   -9.2845 F         1 UNK         0.0000 
     16 C16        18.7413   -1.1375  -10.1417 C.ar      1 UNK         0.0000 
     17 C17        19.4210   -2.1088  -10.8684 C.ar      1 UNK         0.0000 
     18 F18        18.8530   -3.3145  -11.0601 F         1 UNK         0.0000 
     19 C19        20.6751   -1.8286  -11.4013 C.ar      1 UNK         0.0000 
     20 S20        27.5391   -1.0647   -8.5878 S.o2      1 UNK         0.0000 
     21 O21        28.5975   -1.3882   -9.5392 O.2       1 UNK         0.0000 
     22 O22        27.2312   -2.0153   -7.5145 O.2       1 UNK         0.0000 
     23 N23        27.9407    0.4584   -7.8059 N.pl3     1 UNK         0.0000 
     24 F24        27.0378    1.2658  -13.8907 F         1 UNK         0.0000 
     25 F25        26.6284   -0.8376  -13.6973 F         1 UNK         0.0000 
     26 C26        28.4928    1.5464   -8.6066 C.3       1 UNK         0.0000 
     27 H27        28.3741    1.7859  -11.8038 H         1 UNK         0.0000 
     28 H28        27.9892   -0.4124  -11.7122 H         1 UNK         0.0000 
     29 H29        24.8113    1.6720  -12.7864 H         1 UNK         0.0000 
     30 H30        24.3984    0.1783  -13.6254 H         1 UNK         0.0000 
     31 H31        24.7828   -1.4635   -7.8934 H         1 UNK         0.0000 
     32 H32        22.6875   -1.2371   -9.1179 H         1 UNK         0.0000 
     33 H33        20.9875    1.3612  -10.2718 H         1 UNK         0.0000 
     34 H34        17.7955   -1.3802   -9.7072 H         1 UNK         0.0000 
     35 H35        21.2077   -2.5898  -11.9503 H         1 UNK         0.0000 
     36 H36        28.3589    0.3734   -6.8803 H         1 UNK         0.0000 
     37 H37        28.5484    2.4694   -8.0394 H         1 UNK         0.0000 
     38 H38        27.7523    1.7872   -9.3272 H         1 UNK         0.0000 
     39 H39        29.4721    1.2647   -9.0380 H         1 UNK         0.0000 
@<TRIPOS>BOND
     1    1    2 1    
     2    1   27 1    
     3    2    3 1    
     4    2    6 1    
     5    2   28 1    
     6    3    4 1    
     7    3   24 1    
     8    3   25 1    
     9    4    5 1    
    10    4   29 1    
    11    4   30 1    
    12    5    6 ar   
    13    5   10 ar   
    14    6    7 ar   
    15    7    8 ar   
    16    7   20 1    
    17    8    9 ar   
    18    8   31 1    
    19    9   10 ar   
    20    9   32 1    
    21   10   11 1    
    22   11   12 1    
    23   12   13 ar   
    24   12   19 ar   
    25   13   14 ar   
    26   13   33 1    
    27   14   15 1    
    28   14   16 ar   
    29   16   17 ar   
    30   16   34 1    
    31   17   18 1    
    32   17   19 ar   
    33   19   35 1    
    34   20   21 2    
    35   20   22 2    
    36   20   23 1    
    37   23   26 1    
    38   23   36 1    
    39   26   37 1    
    40   26   38 1    
    41   26   39 1    
@<TRIPOS>SUBSTRUCTURE
     1 UNK         1 GROUP             0       ****    0 ROOT    
