@<TRIPOS>MOLECULE
237
38   40    1
SMALL
USER_CHARGES


@<TRIPOS>ATOM
      1 O1         27.8741   -0.4334  -11.8881 O.3       1 UNK         0.0000 
      2 C2         26.9533    0.5103  -11.4691 C.3       1 UNK         0.0000 
      3 C3         26.2123    1.1350  -12.6505 C.3       1 UNK         0.0000 
      4 C4         24.8814    0.4428  -12.7971 C.3       1 UNK         0.0000 
      5 C5         24.6562   -0.1013  -11.4106 C.ar      1 UNK         0.0000 
      6 C6         25.8419   -0.1153  -10.6575 C.ar      1 UNK         0.0000 
      7 C7         25.8608   -0.7137   -9.3921 C.ar      1 UNK         0.0000 
      8 C8         24.6666   -1.1821   -8.8556 C.ar      1 UNK         0.0000 
      9 C9         23.4957   -1.1640   -9.6018 C.ar      1 UNK         0.0000 
     10 C10        23.4866   -0.6454  -10.8961 C.ar      1 UNK         0.0000 
     11 O11        22.3959   -0.6294  -11.7424 O.3       1 UNK         0.0000 
     12 C12        21.1512   -0.8062  -11.2113 C.ar      1 UNK         0.0000 
     13 C13        20.5139   -2.0346  -11.3575 C.ar      1 UNK         0.0000 
     14 C14        19.2861   -2.2462  -10.7434 C.ar      1 UNK         0.0000 
     15 C15        18.6869   -1.2275   -9.9984 C.ar      1 UNK         0.0000 
     16 C16        19.2935    0.0276   -9.9139 C.ar      1 UNK         0.0000 
     17 C17        18.6677    1.1330   -9.2217 C.1       1 UNK         0.0000 
     18 C18        20.5431    0.2205  -10.5011 C.ar      1 UNK         0.0000 
     19 S19        27.3544   -0.9316   -8.4201 S.o2      1 UNK         0.0000 
     20 O20        27.0859   -2.0306   -7.4835 O.2       1 UNK         0.0000 
     21 O21        28.5108   -1.0162   -9.3142 O.2       1 UNK         0.0000 
     22 C22        27.4424    0.7020   -7.4764 C.3       1 UNK         0.0000 
     23 F23        25.9408    2.3663  -12.2653 F         1 UNK         0.0000 
     24 F24        26.9134    1.1664  -13.7919 F         1 UNK         0.0000 
     25 N25        18.1713    2.0136   -8.6640 N.1       1 UNK         0.0000 
     26 F26        27.4016    1.6993   -8.3556 F         1 UNK         0.0000 
     27 F27        26.4012    0.7578   -6.6504 F         1 UNK         0.0000 
     28 F28        18.6855   -3.4418  -10.8633 F         1 UNK         0.0000 
     29 H29        28.6720    0.0152  -12.1950 H         1 UNK         0.0000 
     30 H30        27.5009    1.2650  -10.9032 H         1 UNK         0.0000 
     31 H31        24.9483   -0.3583  -13.5290 H         1 UNK         0.0000 
     32 H32        24.0975    1.1265  -13.1204 H         1 UNK         0.0000 
     33 H33        24.6404   -1.6102   -7.8694 H         1 UNK         0.0000 
     34 H34        22.6040   -1.6081   -9.1858 H         1 UNK         0.0000 
     35 H35        20.9886   -2.8350  -11.8914 H         1 UNK         0.0000 
     36 H36        17.7800   -1.4545   -9.4636 H         1 UNK         0.0000 
     37 H37        21.0611    1.1592  -10.3869 H         1 UNK         0.0000 
     38 H38        28.3614    0.7441   -6.8868 H         1 UNK         0.0000 
@<TRIPOS>BOND
     1    1    2 1    
     2    1   29 1    
     3    2    3 1    
     4    2    6 1    
     5    2   30 1    
     6    3    4 1    
     7    3   23 1    
     8    3   24 1    
     9    4    5 1    
    10    4   31 1    
    11    4   32 1    
    12    5    6 ar   
    13    5   10 ar   
    14    6    7 ar   
    15    7    8 ar   
    16    7   19 1    
    17    8    9 ar   
    18    8   33 1    
    19    9   10 ar   
    20    9   34 1    
    21   10   11 1    
    22   11   12 1    
    23   12   13 ar   
    24   12   18 ar   
    25   13   14 ar   
    26   13   35 1    
    27   14   15 ar   
    28   14   28 1    
    29   15   16 ar   
    30   15   36 1    
    31   16   17 1    
    32   16   18 ar   
    33   17   25 3    
    34   18   37 1    
    35   19   20 2    
    36   19   21 2    
    37   19   22 1    
    38   22   26 1    
    39   22   27 1    
    40   22   38 1    
@<TRIPOS>SUBSTRUCTURE
     1 UNK         1 GROUP             0       ****    0 ROOT    
