@<TRIPOS>MOLECULE
7b
40   42    1
SMALL
USER_CHARGES


@<TRIPOS>ATOM
      1 O1         27.5013   -1.6332  -11.4637 O.3       1 UNK         0.0000 
      2 C2         27.1568   -0.2839  -11.3999 C.3       1 UNK         0.0000 
      3 C3         26.6886    0.3329  -12.7025 C.3       1 UNK         0.0000 
      4 C4         25.1969    0.0379  -12.7689 C.3       1 UNK         0.0000 
      5 C5         24.8105   -0.1505  -11.3108 C.ar      1 UNK         0.0000 
      6 C6         25.9592   -0.2656  -10.5261 C.ar      1 UNK         0.0000 
      7 C7         25.8971   -0.6307   -9.1854 C.ar      1 UNK         0.0000 
      8 C8         24.6408   -0.8548   -8.6218 C.ar      1 UNK         0.0000 
      9 C9         23.4840   -0.6750   -9.3761 C.ar      1 UNK         0.0000 
     10 C10        23.5563   -0.3395  -10.7327 C.ar      1 UNK         0.0000 
     11 O11        22.4601   -0.1883  -11.5559 O.3       1 UNK         0.0000 
     12 C12        21.2105   -0.5483  -11.1220 C.ar      1 UNK         0.0000 
     13 C13        20.7413   -1.8392  -11.3555 C.ar      1 UNK         0.0000 
     14 C14        19.4788   -2.2099  -10.9043 C.ar      1 UNK         0.0000 
     15 F15        19.0081   -3.4457  -11.1600 F         1 UNK         0.0000 
     16 C16        18.6981   -1.3070  -10.1890 C.ar      1 UNK         0.0000 
     17 C17        19.1613   -0.0124   -9.9545 C.ar      1 UNK         0.0000 
     18 Cl18       18.2132    1.1216   -9.0640 Cl        1 UNK         0.0000 
     19 C19        20.4100    0.3677  -10.4377 C.ar      1 UNK         0.0000 
     20 S20        27.3936   -0.9854   -8.2325 S.o2      1 UNK         0.0000 
     21 O21        26.9547   -1.8191   -7.1140 O.2       1 UNK         0.0000 
     22 O22        28.4729   -1.4925   -9.0809 O.2       1 UNK         0.0000 
     23 C23        28.0024    0.7179   -7.6900 C.3       1 UNK         0.0000 
     24 F24        28.1774    1.4774   -8.7679 F         1 UNK         0.0000 
     25 F25        27.1642    1.2786   -6.8272 F         1 UNK         0.0000 
     26 C26        24.4433    1.1364  -13.4936 C.3       1 UNK         0.0000 
     27 H27        26.7744   -2.1461  -11.8362 H         1 UNK         0.0000 
     28 H28        27.9807    0.3158  -11.0121 H         1 UNK         0.0000 
     29 H29        26.8561    1.4115  -12.6450 H         1 UNK         0.0000 
     30 H30        27.2249   -0.0134  -13.5849 H         1 UNK         0.0000 
     31 H31        25.0496   -0.9005  -13.3053 H         1 UNK         0.0000 
     32 H32        24.5542   -1.2332   -7.6122 H         1 UNK         0.0000 
     33 H33        22.5271   -0.8333   -8.9186 H         1 UNK         0.0000 
     34 H34        21.3595   -2.5583  -11.8687 H         1 UNK         0.0000 
     35 H35        17.7450   -1.6335   -9.8144 H         1 UNK         0.0000 
     36 H36        20.7599    1.3719  -10.2636 H         1 UNK         0.0000 
     37 H37        28.9671    0.5600   -7.2227 H         1 UNK         0.0000 
     38 H38        23.4853    0.7668  -13.8302 H         1 UNK         0.0000 
     39 H39        24.9806    1.4869  -14.3669 H         1 UNK         0.0000 
     40 H40        24.2853    1.9691  -12.8189 H         1 UNK         0.0000 
@<TRIPOS>BOND
     1    1    2 1    
     2    1   27 1    
     3    2    3 1    
     4    2    6 1    
     5    2   28 1    
     6    3    4 1    
     7    3   29 1    
     8    3   30 1    
     9    4    5 1    
    10    4   26 1    
    11    4   31 1    
    12    5    6 ar   
    13    5   10 ar   
    14    6    7 ar   
    15    7    8 ar   
    16    7   20 1    
    17    8    9 ar   
    18    8   32 1    
    19    9   10 ar   
    20    9   33 1    
    21   10   11 1    
    22   11   12 1    
    23   12   13 ar   
    24   12   19 ar   
    25   13   14 ar   
    26   13   34 1    
    27   14   15 1    
    28   14   16 ar   
    29   16   17 ar   
    30   16   35 1    
    31   17   18 1    
    32   17   19 ar   
    33   19   36 1    
    34   20   21 2    
    35   20   22 2    
    36   20   23 1    
    37   23   24 1    
    38   23   25 1    
    39   23   37 1    
    40   26   38 1    
    41   26   39 1    
    42   26   40 1    
@<TRIPOS>SUBSTRUCTURE
     1 UNK         1 GROUP             0       ****    0 ROOT    
