@<TRIPOS>MOLECULE
84
33   35    1
SMALL
USER_CHARGES


@<TRIPOS>ATOM
      1 C1         27.1519    0.2532  -11.6800 C.3       1 UNK         0.0000 
      2 O2         26.5130    0.7426  -12.8412 O.3       1 UNK         0.0000 
      3 C3         25.1762    0.6269  -12.7600 C.2       1 UNK         0.0000 
      4 C4         24.8499   -0.0311  -11.4770 C.ar      1 UNK         0.0000 
      5 C5         26.0340   -0.2215  -10.7968 C.ar      1 UNK         0.0000 
      6 C6         26.0242   -0.7693   -9.5082 C.ar      1 UNK         0.0000 
      7 C7         24.8040   -1.0944   -8.9127 C.ar      1 UNK         0.0000 
      8 C8         23.6145   -0.9327   -9.6143 C.ar      1 UNK         0.0000 
      9 C9         23.6192   -0.4161  -10.9195 C.ar      1 UNK         0.0000 
     10 O10        22.4850   -0.2560  -11.6856 O.3       1 UNK         0.0000 
     11 C11        21.2418   -0.5594  -11.1731 C.ar      1 UNK         0.0000 
     12 C12        20.6764   -1.8121  -11.3952 C.ar      1 UNK         0.0000 
     13 C13        19.4207   -2.1058  -10.8708 C.ar      1 UNK         0.0000 
     14 F14        18.8527   -3.3055  -11.0912 F         1 UNK         0.0000 
     15 C15        18.7389   -1.1582  -10.1193 C.ar      1 UNK         0.0000 
     16 C16        19.2846    0.1056   -9.9175 C.ar      1 UNK         0.0000 
     17 Cl17       18.4076    1.3130   -9.0524 Cl        1 UNK         0.0000 
     18 C18        20.5427    0.3982  -10.4386 C.ar      1 UNK         0.0000 
     19 S19        27.5368   -1.0620   -8.6071 S.o2      1 UNK         0.0000 
     20 O20        27.2401   -2.0061   -7.5205 O.2       1 UNK         0.0000 
     21 O21        28.5629   -1.4048   -9.5884 O.2       1 UNK         0.0000 
     22 C22        27.9655    0.6177   -7.8733 C.3       1 UNK         0.0000 
     23 F23        27.8644    1.5436   -8.8222 F         1 UNK         0.0000 
     24 F24        27.1261    0.8718   -6.8704 F         1 UNK         0.0000 
     25 O25        24.4444    1.0443  -13.6419 O.2       1 UNK         0.0000 
     26 H26        27.7351    1.0614  -11.2340 H         1 UNK         0.0000 
     27 H27        27.8490   -0.5450  -11.9454 H         1 UNK         0.0000 
     28 H28        24.7810   -1.4921   -7.9071 H         1 UNK         0.0000 
     29 H29        22.6871   -1.2236   -9.1360 H         1 UNK         0.0000 
     30 H30        21.2083   -2.5725  -11.9463 H         1 UNK         0.0000 
     31 H31        17.8032   -1.4332   -9.6854 H         1 UNK         0.0000 
     32 H32        20.9779    1.3673  -10.2624 H         1 UNK         0.0000 
     33 H33        28.9894    0.5501   -7.5409 H         1 UNK         0.0000 
@<TRIPOS>BOND
     1    1    2 1    
     2    1    5 1    
     3    1   26 1    
     4    1   27 1    
     5    2    3 1    
     6    3    4 1    
     7    3   25 2    
     8    4    5 ar   
     9    4    9 ar   
    10    5    6 ar   
    11    6    7 ar   
    12    6   19 1    
    13    7    8 ar   
    14    7   28 1    
    15    8    9 ar   
    16    8   29 1    
    17    9   10 1    
    18   10   11 1    
    19   11   12 ar   
    20   11   18 ar   
    21   12   13 ar   
    22   12   30 1    
    23   13   14 1    
    24   13   15 ar   
    25   15   16 ar   
    26   15   31 1    
    27   16   17 1    
    28   16   18 ar   
    29   18   32 1    
    30   19   20 2    
    31   19   21 2    
    32   19   22 1    
    33   22   23 1    
    34   22   24 1    
    35   22   33 1    
@<TRIPOS>SUBSTRUCTURE
     1 UNK         1 GROUP             0       ****    0 ROOT    
