23
                    3D
 Schrodinger Suite 2021-2.
 43 46  0  0  1  0            999 V2000
    3.0246  -47.2604    6.9944 O   0  0  0  0  0  0
    2.9960  -48.5042    6.8710 C   0  0  0  0  0  0
    4.0304  -49.1832    7.0447 O   0  5  0  0  0  0
    1.7173  -49.1783    6.5232 C   0  0  0  0  0  0
    1.5846  -50.8595    6.9155 S   0  0  0  0  0  0
   -0.1074  -50.8954    6.4429 C   0  0  0  0  0  0
   -1.0177  -51.9619    6.5205 C   0  0  0  0  0  0
   -2.3600  -51.7826    6.1407 C   0  0  0  0  0  0
   -2.7782  -50.5305    5.6661 C   0  0  0  0  0  0
   -1.8605  -49.4770    5.5713 C   0  0  0  0  0  0
   -0.5101  -49.6375    5.9492 C   0  0  0  0  0  0
    0.5664  -48.6906    5.9585 C   0  0  0  0  0  0
    0.3137  -47.3112    5.5435 C   0  0  0  0  0  0
   -0.2396  -46.7215    6.7936 C   0  0  0  0  0  0
   -0.6961  -45.3559    6.6884 C   0  0  0  0  0  0
   -1.9385  -45.1775    6.0286 O   0  0  0  0  0  0
   -3.0375  -45.0386    6.8285 C   0  0  0  0  0  0
   -5.5067  -45.0317    8.1774 C   0  0  0  0  0  0
   -4.4626  -45.8627    8.6014 C   0  0  0  0  0  0
   -3.2095  -45.7791    7.9933 C   0  0  0  0  0  0
   -0.6936  -52.9207    6.8986 H   0  0  0  0  0  0
   -3.0607  -52.6020    6.2172 H   0  0  0  0  0  0
   -3.8055  -50.3796    5.3610 H   0  0  0  0  0  0
   -2.2102  -48.5212    5.2110 H   0  0  0  0  0  0
    1.2550  -46.8775    5.1921 H   0  0  0  0  0  0
   -0.3463  -47.2867    4.6756 H   0  0  0  0  0  0
   -1.1185  -47.2793    7.0915 H   0  0  0  0  0  0
    0.4472  -46.8907    7.6259 H   0  0  0  0  0  0
   -0.7712  -44.9735    7.7017 H   0  0  0  0  0  0
    0.0782  -44.7786    6.1736 H   0  0  0  0  0  0
   -2.3961  -46.2984    8.4689 H   0  0  0  0  0  0
   -5.3575  -44.2723    7.0078 C   0  0  0  0  0  0
   -4.1066  -44.2675    6.3653 C   0  0  0  0  0  0
   -3.9811  -43.4269    5.2107 C   0  0  0  0  0  0
   -5.1304  -42.8009    4.6703 C   0  0  0  0  0  0
   -6.3870  -42.9578    5.3017 C   0  0  0  0  0  0
   -6.5050  -43.6530    6.4633 C   0  0  0  0  0  0
   -3.0459  -43.3679    4.6721 H   0  0  0  0  0  0
   -5.0534  -42.2447    3.7489 H   0  0  0  0  0  0
   -7.2584  -42.4755    4.8894 H   0  0  0  0  0  0
   -7.4723  -43.7830    6.9265 H   0  0  0  0  0  0
   -4.6147  -46.5779    9.3902 H   0  0  0  0  0  0
   -6.4512  -45.0466    8.7024 H   0  0  0  0  0  0
  1  2  2  0  0  0
  2  3  1  0  0  0
  2  4  1  0  0  0
  4  5  1  0  0  0
  4 12  2  0  0  0
  5  6  1  0  0  0
  6  7  1  0  0  0
  6 11  2  0  0  0
  7  8  2  0  0  0
  7 21  1  0  0  0
  8  9  1  0  0  0
  8 22  1  0  0  0
  9 10  2  0  0  0
  9 23  1  0  0  0
 10 11  1  0  0  0
 10 24  1  0  0  0
 11 12  1  0  0  0
 12 13  1  0  0  0
 13 25  1  0  0  0
 13 26  1  0  0  0
 13 14  1  0  0  0
 14 15  1  0  0  0
 14 27  1  0  0  0
 14 28  1  0  0  0
 15 16  1  0  0  0
 15 29  1  0  0  0
 15 30  1  0  0  0
 16 17  1  0  0  0
 17 20  2  0  0  0
 17 33  1  0  0  0
 18 19  2  0  0  0
 18 32  1  0  0  0
 18 43  1  0  0  0
 19 20  1  0  0  0
 19 42  1  0  0  0
 20 31  1  0  0  0
 32 33  2  0  0  0
 32 37  1  0  0  0
 33 34  1  0  0  0
 34 35  2  0  0  0
 34 38  1  0  0  0
 35 36  1  0  0  0
 35 39  1  0  0  0
 36 37  2  0  0  0
 36 40  1  0  0  0
 37 41  1  0  0  0
M  CHG  1   3  -1
M  END
> <s_m_entry_id>
322

> <s_m_entry_name>
MCL1_23.1

> <r_m_Molecular_weight>
361.44299

> <s_m_Source_Path>
C:\Users\yujiethinkpad\Desktop\05A\MCL1\original

> <s_m_Source_File>
MCL1_23.sdf

> <r_user_dG.exp>
-8.82854391662772

> <s_fepmapper_entryid>
21

> <i_fepmapper_bias>
0

> <i_fepmapper_affinity>
1

> <r_fepmapper_exp_dG>
-8.82854391663

> <i_fepmapper_unit>
1

> <i_m_Source_File_Index>
1

> <s_m_job_name>
align_ligands_3

> <s_i_glide_gridfile>
glide-grid_MCL1

> <i_i_glide_lignum>
9

> <i_i_glide_rotatable_bonds>
6

> <r_i_docking_score>
-8.90439107067483

> <r_i_glide_ligand_efficiency>
-0.34247657964134

> <r_i_glide_ligand_efficiency_sa>
-1.0145855196072

> <r_i_glide_ligand_efficiency_ln>
-2.09116702525778

> <r_i_glide_gscore>
-8.90439107067483

> <r_i_glide_lipo>
-5.43944071448156

> <r_i_glide_hbond>
-0.264721166880017

> <r_i_glide_metal>
0

> <r_i_glide_rewards>
-1.84476422727273

> <r_i_glide_evdw>
-31.2012062072754

> <r_i_glide_ecoul>
-2.34965872764587

> <r_i_glide_erotb>
0.587606020905209

> <r_i_glide_esite>
-0.0305618634350902

> <r_i_glide_emodel>
-43.4676013628476

> <r_i_glide_energy>
-33.5508649349213

> <r_i_glide_einternal>
2.82803559303284

> <i_i_glide_confnum>
53

> <i_i_glide_posenum>
45

> <r_i_glide_eff_state_penalty>
0

> <r_glide_shape_similarity>
0.894578456878662

> <i_phase_Input_Structure_Number>
3

> <i_phase_Structure_Number>
3

> <r_phase_Similarity_to_Reference>
0.872400543050477

> <i_phase_Reference_Structure>
1

> <s_phase_Alignment_Method>
snapped core

> <s_phase_Alignment_Reason>


> <s_phase_Core_SMARTS>
a1aaaaa1AAAAa(aa2)a(a23)aaaa3

> <s_f3d_frozen_atoms>
33 32 18 19 20 17 16 15 14 13 12 4 5 11 6 10 9 8 7 43 42 31 29 30 27 28 25 26 24 23 22 21

> <s_m_subgroup_title>
align_ligands_3->glide-dock_SP_redock_05676_lib1

> <s_m_subgroupid>
align_ligands_3->glide-dock_SP_redock_05676_lib11

> <b_m_subgroup_collapsed>
0

$$$$
