26
                    3D
 Schrodinger Suite 2021-2.
 43 46  0  0  1  0            999 V2000
    3.0246  -47.2604    6.9944 O   0  0  0  0  0  0
    2.9960  -48.5042    6.8710 C   0  0  0  0  0  0
    4.0304  -49.1832    7.0447 O   0  5  0  0  0  0
    1.7173  -49.1783    6.5232 C   0  0  0  0  0  0
   -0.1074  -50.8954    6.4429 C   0  0  0  0  0  0
   -1.0177  -51.9619    6.5205 C   0  0  0  0  0  0
   -2.3600  -51.7826    6.1407 C   0  0  0  0  0  0
   -2.7782  -50.5305    5.6661 C   0  0  0  0  0  0
   -1.8605  -49.4770    5.5713 C   0  0  0  0  0  0
   -0.5101  -49.6375    5.9492 C   0  0  0  0  0  0
    0.5664  -48.6906    5.9585 C   0  0  0  0  0  0
    0.3137  -47.3112    5.5435 C   0  0  0  0  0  0
   -0.2396  -46.7215    6.7936 C   0  0  0  0  0  0
   -0.6961  -45.3559    6.6884 C   0  0  0  0  0  0
   -1.9385  -45.1775    6.0286 O   0  0  0  0  0  0
   -3.0375  -45.0386    6.8285 C   0  0  0  0  0  0
   -5.5067  -45.0317    8.1774 C   0  0  0  0  0  0
   -4.4626  -45.8627    8.6014 C   0  0  0  0  0  0
   -3.2095  -45.7791    7.9933 C   0  0  0  0  0  0
   -0.6974  -52.9223    6.8937 H   0  0  0  0  0  0
   -3.0592  -52.6033    6.2211 H   0  0  0  0  0  0
   -3.8047  -50.3814    5.3619 H   0  0  0  0  0  0
   -2.1946  -48.5073    5.2328 H   0  0  0  0  0  0
    1.2547  -46.8712    5.2097 H   0  0  0  0  0  0
   -0.3366  -47.2882    4.6683 H   0  0  0  0  0  0
   -1.0316  -47.3595    7.1817 H   0  0  0  0  0  0
    0.5525  -46.7942    7.5367 H   0  0  0  0  0  0
   -0.5838  -44.7944    7.6071 H   0  0  0  0  0  0
    0.0386  -44.8612    6.1196 H   0  0  0  0  0  0
   -2.3627  -46.2645    8.4155 H   0  0  0  0  0  0
   -5.3575  -44.2723    7.0078 C   0  0  0  0  0  0
   -4.1066  -44.2675    6.3653 C   0  0  0  0  0  0
   -3.9013  -43.3661    5.2996 C   0  0  0  0  0  0
   -4.9368  -42.4853    4.9405 C   0  0  0  0  0  0
   -6.2271  -42.6060    5.5211 C   0  0  0  0  0  0
   -6.4255  -43.4612    6.5670 C   0  0  0  0  0  0
   -2.9347  -43.2864    4.8198 H   0  0  0  0  0  0
   -4.7276  -41.7130    4.2098 H   0  0  0  0  0  0
   -7.0347  -41.9768    5.1813 H   0  0  0  0  0  0
   -7.3660  -43.4468    7.0972 H   0  0  0  0  0  0
   -4.6175  -46.5635    9.4092 H   0  0  0  0  0  0
   -6.4039  -44.9522    8.7725 H   0  0  0  0  0  0
    1.5846  -50.8595    6.9155 O   0  0  0  0  0  0
  1  2  2  0  0  0
  2  3  1  0  0  0
  2  4  1  0  0  0
  4 11  2  0  0  0
  4 43  1  0  0  0
  5  6  1  0  0  0
  5 10  2  0  0  0
  5 43  1  0  0  0
  6  7  2  0  0  0
  6 20  1  0  0  0
  7  8  1  0  0  0
  7 21  1  0  0  0
  8  9  2  0  0  0
  8 22  1  0  0  0
  9 10  1  0  0  0
  9 23  1  0  0  0
 10 11  1  0  0  0
 11 12  1  0  0  0
 12 24  1  0  0  0
 12 25  1  0  0  0
 12 13  1  0  0  0
 13 14  1  0  0  0
 13 26  1  0  0  0
 13 27  1  0  0  0
 14 15  1  0  0  0
 14 28  1  0  0  0
 14 29  1  0  0  0
 15 16  1  0  0  0
 16 19  2  0  0  0
 16 32  1  0  0  0
 17 18  2  0  0  0
 17 31  1  0  0  0
 17 42  1  0  0  0
 18 19  1  0  0  0
 18 41  1  0  0  0
 19 30  1  0  0  0
 31 32  2  0  0  0
 31 36  1  0  0  0
 32 33  1  0  0  0
 33 34  2  0  0  0
 33 37  1  0  0  0
 34 35  1  0  0  0
 34 38  1  0  0  0
 35 36  2  0  0  0
 35 39  1  0  0  0
 36 40  1  0  0  0
M  CHG  1   3  -1
M  END
> <s_m_entry_id>
333

> <s_m_entry_name>
MCL1_26.1

> <r_m_Molecular_weight>
345.37839

> <s_m_Source_Path>
C:\Users\yujiethinkpad\Desktop\05A\MCL1\original

> <s_m_Source_File>
MCL1_26.sdf

> <r_user_dG.exp>
-8.23584030891924

> <s_fepmapper_entryid>
2

> <i_fepmapper_bias>
0

> <i_fepmapper_affinity>
1

> <r_fepmapper_exp_dG>
-8.23584030892

> <i_fepmapper_unit>
1

> <i_m_Source_File_Index>
1

> <s_m_job_name>
align_ligands_3

> <s_i_glide_gridfile>
glide-grid_MCL1

> <i_i_glide_lignum>
10

> <i_i_glide_rotatable_bonds>
6

> <r_i_docking_score>
-8.54134549032859

> <r_i_glide_ligand_efficiency>
-0.328513288089561

> <r_i_glide_ligand_efficiency_sa>
-0.973219323327956

> <r_i_glide_ligand_efficiency_ln>
-2.00590696196318

> <r_i_glide_gscore>
-8.54134549032859

> <r_i_glide_lipo>
-5.19223423281176

> <r_i_glide_hbond>
-0.2

> <r_i_glide_metal>
0

> <r_i_glide_rewards>
-1.95430922727273

> <r_i_glide_evdw>
-28.7390403747559

> <r_i_glide_ecoul>
-2.52035522460938

> <r_i_glide_erotb>
0.637125540834659

> <r_i_glide_esite>
-0.0169222686495671

> <r_i_glide_emodel>
-34.1881408126138

> <r_i_glide_energy>
-31.2593955993652

> <r_i_glide_einternal>
11.8308410644531

> <i_i_glide_confnum>
51

> <i_i_glide_posenum>
30

> <r_i_glide_eff_state_penalty>
0

> <r_glide_shape_similarity>
0.877148807048798

> <i_phase_Input_Structure_Number>
14

> <i_phase_Structure_Number>
14

> <r_phase_Similarity_to_Reference>
0.859680675339895

> <i_phase_Reference_Structure>
1

> <s_phase_Alignment_Method>
snapped core

> <s_phase_Alignment_Reason>


> <s_phase_Core_SMARTS>
a1aaaaa1AAAAa(aa2)a(a23)aaaa3

> <s_f3d_frozen_atoms>
32 31 17 18 19 16 15 14 13 12 11 4 43 10 5 9 8 7 6 42 41 30 28 29 26 27 24 25 23 22 21 20

> <s_m_subgroup_title>
align_ligands_3->glide-dock_SP_redock_05676_lib1

> <s_m_subgroupid>
align_ligands_3->glide-dock_SP_redock_05676_lib11

> <b_m_subgroup_collapsed>
0

$$$$
