35
                    3D
 Schrodinger Suite 2021-2.
 41 43  0  0  1  0            999 V2000
    3.0246  -47.2604    6.9944 O   0  0  0  0  0  0
    2.9960  -48.5042    6.8710 C   0  0  0  0  0  0
    4.0304  -49.1832    7.0447 O   0  5  0  0  0  0
    1.7173  -49.1783    6.5232 C   0  0  0  0  0  0
   -0.1074  -50.8954    6.4429 C   0  0  0  0  0  0
   -1.0177  -51.9619    6.5205 C   0  0  0  0  0  0
   -2.3600  -51.7826    6.1407 C   0  0  0  0  0  0
   -2.7782  -50.5305    5.6661 C   0  0  0  0  0  0
   -1.8605  -49.4770    5.5713 C   0  0  0  0  0  0
   -0.5101  -49.6375    5.9492 C   0  0  0  0  0  0
    0.5664  -48.6906    5.9585 C   0  0  0  0  0  0
    0.3137  -47.3112    5.5435 C   0  0  0  0  0  0
   -0.2396  -46.7215    6.7936 C   0  0  0  0  0  0
   -0.6961  -45.3559    6.6884 C   0  0  0  0  0  0
   -1.9385  -45.1775    6.0286 O   0  0  0  0  0  0
   -3.0375  -45.0386    6.8285 C   0  0  0  0  0  0
   -4.1066  -44.2675    6.3653 C   0  0  0  0  0  0
   -5.3575  -44.2723    7.0078 C   0  0  0  0  0  0
   -5.5067  -45.0317    8.1774 C   0  0  0  0  0  0
   -4.4626  -45.8627    8.6014 C   0  0  0  0  0  0
   -3.2095  -45.7791    7.9933 C   0  0  0  0  0  0
   -0.6955  -52.9238    6.8877 H   0  0  0  0  0  0
   -3.0650  -52.5984    6.2184 H   0  0  0  0  0  0
   -3.8034  -50.3823    5.3624 H   0  0  0  0  0  0
   -2.1962  -48.5142    5.2167 H   0  0  0  0  0  0
   -0.3484  -47.2945    4.6794 H   0  0  0  0  0  0
    1.2444  -46.8597    5.1959 H   0  0  0  0  0  0
    0.5322  -46.7308    7.5613 H   0  0  0  0  0  0
   -1.0559  -47.3299    7.1779 H   0  0  0  0  0  0
    0.0496  -44.7708    6.1434 H   0  0  0  0  0  0
   -0.8507  -44.9174    7.6701 H   0  0  0  0  0  0
   -3.9847  -43.6747    5.4706 H   0  0  0  0  0  0
   -2.4040  -46.3487    8.4305 H   0  0  0  0  0  0
    1.5846  -50.8595    6.9155 N   0  0  0  0  0  0
    2.3720  -51.3544    7.3060 H   0  0  0  0  0  0
   -4.6289  -46.5834    9.3896 H   0  0  0  0  0  0
   -6.9241  -44.9116    9.1223 Cl  0  0  0  0  0  0
   -6.5236  -43.5491    6.3884 C   0  0  0  0  0  0
   -6.1915  -42.8411    5.6296 H   0  0  0  0  0  0
   -7.1034  -43.0089    7.1373 H   0  0  0  0  0  0
   -7.1869  -44.2660    5.9067 H   0  0  0  0  0  0
  1  2  2  0  0  0
  2  3  1  0  0  0
  2  4  1  0  0  0
  4 11  2  0  0  0
  4 34  1  0  0  0
  5  6  1  0  0  0
  5 10  2  0  0  0
  5 34  1  0  0  0
  6  7  2  0  0  0
  6 22  1  0  0  0
  7  8  1  0  0  0
  7 23  1  0  0  0
  8  9  2  0  0  0
  8 24  1  0  0  0
  9 10  1  0  0  0
  9 25  1  0  0  0
 10 11  1  0  0  0
 11 12  1  0  0  0
 12 26  1  0  0  0
 12 27  1  0  0  0
 12 13  1  0  0  0
 13 14  1  0  0  0
 13 28  1  0  0  0
 13 29  1  0  0  0
 14 15  1  0  0  0
 14 30  1  0  0  0
 14 31  1  0  0  0
 15 16  1  0  0  0
 16 17  1  0  0  0
 16 21  2  0  0  0
 17 18  2  0  0  0
 17 32  1  0  0  0
 18 19  1  0  0  0
 18 38  1  0  0  0
 19 20  2  0  0  0
 19 37  1  0  0  0
 20 21  1  0  0  0
 20 36  1  0  0  0
 21 33  1  0  0  0
 34 35  1  0  0  0
 38 39  1  0  0  0
 38 40  1  0  0  0
 38 41  1  0  0  0
M  CHG  1   3  -1
M  END
> <s_m_entry_id>
352

> <s_m_entry_name>
MCL1_35.1

> <r_m_Molecular_weight>
342.80524

> <s_m_Source_Path>
C:\Users\yujiethinkpad\Desktop\05A\MCL1\original

> <s_m_Source_File>
MCL1_35.sdf

> <r_user_dG.exp>
-8.81264617449463

> <s_fepmapper_entryid>
6

> <i_fepmapper_bias>
0

> <i_fepmapper_affinity>
1

> <r_fepmapper_exp_dG>
-8.81264617449

> <i_fepmapper_unit>
1

> <i_m_Source_File_Index>
1

> <s_m_job_name>
align_ligands_3

> <s_i_glide_gridfile>
glide-grid_MCL1

> <i_i_glide_lignum>
19

> <i_i_glide_rotatable_bonds>
6

> <r_i_docking_score>
-7.73760361092518

> <r_i_glide_ligand_efficiency>
-0.322400150455216

> <r_i_glide_ligand_efficiency_sa>
-0.929962955937

> <r_i_glide_ligand_efficiency_ln>
-1.85196359958838

> <r_i_glide_gscore>
-7.73760361092518

> <r_i_glide_lipo>
-4.61654771453321

> <r_i_glide_hbond>
-0.2

> <r_i_glide_metal>
0

> <r_i_glide_rewards>
-1.84376570455843

> <r_i_glide_evdw>
-28.68044090271

> <r_i_glide_ecoul>
-2.93396401405334

> <r_i_glide_erotb>
0.807043462423793

> <r_i_glide_esite>
-0.0102170070138396

> <r_i_glide_emodel>
-40.3696860488673

> <r_i_glide_energy>
-31.6144049167633

> <r_i_glide_einternal>
4.08218955993652

> <i_i_glide_confnum>
292

> <i_i_glide_posenum>
399

> <r_i_glide_eff_state_penalty>
0

> <r_glide_shape_similarity>
0.895656883716583

> <i_phase_Input_Structure_Number>
33

> <i_phase_Structure_Number>
33

> <r_phase_Similarity_to_Reference>
0.929933198665231

> <i_phase_Reference_Structure>
1

> <s_phase_Alignment_Method>
snapped core

> <s_phase_Alignment_Reason>


> <s_phase_Core_SMARTS>
a1aaaaa1AAAAa(aa2)a(a23)aaaa3

> <s_f3d_frozen_atoms>
17 18 19 20 21 16 15 14 13 12 11 4 34 10 5 9 8 7 6 32 37 36 33 30 31 28 29 26 27 35 25 24 23 22

> <s_m_subgroup_title>
align_ligands_3->glide-dock_SP_redock_05676_lib1

> <s_m_subgroupid>
align_ligands_3->glide-dock_SP_redock_05676_lib11

> <b_m_subgroup_collapsed>
0

$$$$
