36
                    3D
 Schrodinger Suite 2021-2.
 44 46  0  0  1  0            999 V2000
    3.0246  -47.2604    6.9944 O   0  0  0  0  0  0
    2.9960  -48.5042    6.8710 C   0  0  0  0  0  0
    4.0304  -49.1832    7.0447 O   0  5  0  0  0  0
    1.7173  -49.1783    6.5232 C   0  0  0  0  0  0
   -0.1074  -50.8954    6.4429 C   0  0  0  0  0  0
   -1.0177  -51.9619    6.5205 C   0  0  0  0  0  0
   -2.3600  -51.7826    6.1407 C   0  0  0  0  0  0
   -2.7782  -50.5305    5.6661 C   0  0  0  0  0  0
   -1.8605  -49.4770    5.5713 C   0  0  0  0  0  0
   -0.5101  -49.6375    5.9492 C   0  0  0  0  0  0
    0.5664  -48.6906    5.9585 C   0  0  0  0  0  0
    0.3137  -47.3112    5.5435 C   0  0  0  0  0  0
   -0.2396  -46.7215    6.7936 C   0  0  0  0  0  0
   -0.6961  -45.3559    6.6884 C   0  0  0  0  0  0
   -1.9385  -45.1775    6.0286 O   0  0  0  0  0  0
   -3.0375  -45.0386    6.8285 C   0  0  0  0  0  0
   -3.2095  -45.7791    7.9933 C   0  0  0  0  0  0
   -4.4626  -45.8627    8.6014 C   0  0  0  0  0  0
   -5.5067  -45.0317    8.1774 C   0  0  0  0  0  0
   -5.3575  -44.2723    7.0078 C   0  0  0  0  0  0
   -4.1066  -44.2675    6.3653 C   0  0  0  0  0  0
   -0.6991  -52.9115    6.9133 H   0  0  0  0  0  0
   -3.0558  -52.6031    6.2490 H   0  0  0  0  0  0
   -3.7998  -50.3853    5.3573 H   0  0  0  0  0  0
   -2.2012  -48.5193    5.2231 H   0  0  0  0  0  0
    1.2374  -46.8525    5.1981 H   0  0  0  0  0  0
   -0.3511  -47.2892    4.6818 H   0  0  0  0  0  0
   -1.0596  -47.3171    7.1921 H   0  0  0  0  0  0
    0.5296  -46.7428    7.5678 H   0  0  0  0  0  0
   -0.8347  -44.9140    7.6685 H   0  0  0  0  0  0
    0.0419  -44.7757    6.1331 H   0  0  0  0  0  0
   -2.3893  -46.3489    8.3964 H   0  0  0  0  0  0
   -3.9676  -43.6593    5.4880 H   0  0  0  0  0  0
    1.5846  -50.8595    6.9155 N   0  0  0  0  0  0
    2.3686  -51.3578    7.3078 H   0  0  0  0  0  0
   -6.1994  -43.7374    6.5868 H   0  0  0  0  0  0
   -6.9241  -44.9116    9.1223 Cl  0  0  0  0  0  0
   -4.6444  -46.7142    9.8228 C   0  0  0  0  0  0
   -4.4531  -46.1166   10.7141 H   0  0  0  0  0  0
   -5.6656  -47.0940    9.8523 H   0  0  0  0  0  0
   -3.6839  -47.8655    9.7772 C   0  0  0  0  0  0
   -3.8159  -48.4842   10.6648 H   0  0  0  0  0  0
   -3.8751  -48.4631    8.8859 H   0  0  0  0  0  0
   -2.6626  -47.4856    9.7477 H   0  0  0  0  0  0
  1  2  2  0  0  0
  2  3  1  0  0  0
  2  4  1  0  0  0
  4 11  2  0  0  0
  4 34  1  0  0  0
  5  6  1  0  0  0
  5 10  2  0  0  0
  5 34  1  0  0  0
  6  7  2  0  0  0
  6 22  1  0  0  0
  7  8  1  0  0  0
  7 23  1  0  0  0
  8  9  2  0  0  0
  8 24  1  0  0  0
  9 10  1  0  0  0
  9 25  1  0  0  0
 10 11  1  0  0  0
 11 12  1  0  0  0
 12 26  1  0  0  0
 12 27  1  0  0  0
 12 13  1  0  0  0
 13 14  1  0  0  0
 13 28  1  0  0  0
 13 29  1  0  0  0
 14 15  1  0  0  0
 14 30  1  0  0  0
 14 31  1  0  0  0
 15 16  1  0  0  0
 16 17  1  0  0  0
 16 21  2  0  0  0
 17 18  2  0  0  0
 17 32  1  0  0  0
 18 19  1  0  0  0
 18 38  1  0  0  0
 19 20  2  0  0  0
 19 37  1  0  0  0
 20 21  1  0  0  0
 20 36  1  0  0  0
 21 33  1  0  0  0
 34 35  1  0  0  0
 38 39  1  0  0  0
 38 40  1  0  0  0
 38 41  1  0  0  0
 41 42  1  0  0  0
 41 43  1  0  0  0
 41 44  1  0  0  0
M  CHG  1   3  -1
M  END
> <s_m_entry_id>
349

> <s_m_entry_name>
MCL1_36.1

> <r_m_Molecular_weight>
356.83233

> <s_m_Source_Path>
C:\Users\yujiethinkpad\Desktop\05A\MCL1\original

> <s_m_Source_File>
MCL1_36.sdf

> <r_user_dG.exp>
-8.17902305143249

> <s_fepmapper_entryid>
37

> <i_fepmapper_bias>
0

> <i_fepmapper_affinity>
1

> <r_fepmapper_exp_dG>
-8.17902305143

> <i_fepmapper_unit>
1

> <i_m_Source_File_Index>
1

> <s_m_job_name>
align_ligands_3

> <s_i_glide_gridfile>
glide-grid_MCL1

> <i_i_glide_lignum>
20

> <i_i_glide_rotatable_bonds>
7

> <r_i_docking_score>
-8.09547331331469

> <r_i_glide_ligand_efficiency>
-0.323818932532588

> <r_i_glide_ligand_efficiency_sa>
-0.946852301678508

> <r_i_glide_ligand_efficiency_ln>
-1.91886977701402

> <r_i_glide_gscore>
-8.09547331331469

> <r_i_glide_lipo>
-4.85669083058992

> <r_i_glide_hbond>
-0.2

> <r_i_glide_metal>
0

> <r_i_glide_rewards>
-1.82642594388088

> <r_i_glide_evdw>
-30.2211418151855

> <r_i_glide_ecoul>
-2.94885087013245

> <r_i_glide_erotb>
0.751512930677006

> <r_i_glide_esite>
-0.0104847482417536

> <r_i_glide_emodel>
-44.4099798893312

> <r_i_glide_energy>
-33.169992685318

> <r_i_glide_einternal>
5.20924854278564

> <i_i_glide_confnum>
117

> <i_i_glide_posenum>
60

> <r_i_glide_eff_state_penalty>
0

> <r_glide_shape_similarity>
0.91619861125946

> <i_phase_Input_Structure_Number>
30

> <i_phase_Structure_Number>
30

> <r_phase_Similarity_to_Reference>
0.936089032334692

> <i_phase_Reference_Structure>
1

> <s_phase_Alignment_Method>
snapped core

> <s_phase_Alignment_Reason>


> <s_phase_Core_SMARTS>
a1aaaaa1AAAAa(aa2)a(a23)aaaa3

> <s_f3d_frozen_atoms>
21 20 19 18 17 16 15 14 13 12 11 4 34 10 5 9 8 7 6 33 36 37 32 30 31 28 29 26 27 35 25 24 23 22

> <s_m_subgroup_title>
align_ligands_3->glide-dock_SP_redock_05676_lib1

> <s_m_subgroupid>
align_ligands_3->glide-dock_SP_redock_05676_lib11

> <b_m_subgroup_collapsed>
0

$$$$
