41
                    3D
 Schrodinger Suite 2021-2.
 49 52  0  0  1  0            999 V2000
    3.0246  -47.2604    6.9944 O   0  0  0  0  0  0
    2.9960  -48.5042    6.8710 C   0  0  0  0  0  0
    4.0304  -49.1832    7.0447 O   0  5  0  0  0  0
    1.7173  -49.1783    6.5232 C   0  0  0  0  0  0
   -0.1074  -50.8954    6.4429 C   0  0  0  0  0  0
   -1.0177  -51.9619    6.5205 C   0  0  0  0  0  0
   -2.3600  -51.7826    6.1407 C   0  0  0  0  0  0
   -2.7782  -50.5305    5.6661 C   0  0  0  0  0  0
   -1.8605  -49.4770    5.5713 C   0  0  0  0  0  0
   -0.5101  -49.6375    5.9492 C   0  0  0  0  0  0
    0.5664  -48.6906    5.9585 C   0  0  0  0  0  0
    0.3137  -47.3112    5.5435 C   0  0  0  0  0  0
   -0.2396  -46.7215    6.7936 C   0  0  0  0  0  0
   -0.6961  -45.3559    6.6884 C   0  0  0  0  0  0
   -1.9385  -45.1775    6.0286 O   0  0  0  0  0  0
   -3.0375  -45.0386    6.8285 C   0  0  0  0  0  0
   -3.2095  -45.7791    7.9933 C   0  0  0  0  0  0
   -4.4626  -45.8627    8.6014 C   0  0  0  0  0  0
   -5.5067  -45.0317    8.1774 C   0  0  0  0  0  0
   -5.3575  -44.2723    7.0078 C   0  0  0  0  0  0
   -4.1066  -44.2675    6.3653 C   0  0  0  0  0  0
   -0.7025  -52.9125    6.9200 H   0  0  0  0  0  0
   -3.0686  -52.5937    6.2267 H   0  0  0  0  0  0
   -3.8078  -50.4166    5.3799 H   0  0  0  0  0  0
   -2.1811  -48.5011    5.2666 H   0  0  0  0  0  0
    1.2537  -46.8634    5.2213 H   0  0  0  0  0  0
   -0.3134  -47.2882    4.6515 H   0  0  0  0  0  0
   -1.0602  -47.3253    7.1833 H   0  0  0  0  0  0
    0.5321  -46.7186    7.5619 H   0  0  0  0  0  0
   -0.6703  -44.8287    7.6399 H   0  0  0  0  0  0
   -0.0410  -44.7888    6.0282 H   0  0  0  0  0  0
   -2.4015  -46.3260    8.4470 H   0  0  0  0  0  0
   -3.9737  -43.4972    5.6232 H   0  0  0  0  0  0
    1.5846  -50.8595    6.9155 N   0  0  0  0  0  0
    2.3715  -51.3558    7.3205 H   0  0  0  0  0  0
   -6.2380  -43.8665    6.5299 H   0  0  0  0  0  0
   -4.6337  -46.5518    9.4026 H   0  0  0  0  0  0
   -6.7421  -45.1191    8.7862 O   0  0  0  0  0  0
   -6.6556  -46.2781   12.7802 C   0  0  0  0  0  0
   -7.1989  -45.0492   12.4248 C   0  0  0  0  0  0
   -7.2278  -44.6620   11.0904 C   0  0  0  0  0  0
   -6.7134  -45.5036   10.1112 C   0  0  0  0  0  0
   -6.1701  -46.7325   10.4666 C   0  0  0  0  0  0
   -6.1412  -47.1197   11.8011 C   0  0  0  0  0  0
   -6.6331  -46.5796   13.8191 H   0  0  0  0  0  0
   -7.5994  -44.3940   13.1871 H   0  0  0  0  0  0
   -7.6508  -43.7052   10.8137 H   0  0  0  0  0  0
   -5.7696  -47.3877    9.7043 H   0  0  0  0  0  0
   -5.7182  -48.0765   12.0777 H   0  0  0  0  0  0
  1  2  2  0  0  0
  2  3  1  0  0  0
  2  4  1  0  0  0
  4 11  2  0  0  0
  4 34  1  0  0  0
  5  6  1  0  0  0
  5 10  2  0  0  0
  5 34  1  0  0  0
  6  7  2  0  0  0
  6 22  1  0  0  0
  7  8  1  0  0  0
  7 23  1  0  0  0
  8  9  2  0  0  0
  8 24  1  0  0  0
  9 10  1  0  0  0
  9 25  1  0  0  0
 10 11  1  0  0  0
 11 12  1  0  0  0
 12 26  1  0  0  0
 12 27  1  0  0  0
 12 13  1  0  0  0
 13 14  1  0  0  0
 13 28  1  0  0  0
 13 29  1  0  0  0
 14 15  1  0  0  0
 14 30  1  0  0  0
 14 31  1  0  0  0
 15 16  1  0  0  0
 16 17  1  0  0  0
 16 21  2  0  0  0
 17 18  2  0  0  0
 17 32  1  0  0  0
 18 19  1  0  0  0
 18 37  1  0  0  0
 19 20  2  0  0  0
 19 38  1  0  0  0
 20 21  1  0  0  0
 20 36  1  0  0  0
 21 33  1  0  0  0
 34 35  1  0  0  0
 38 42  1  0  0  0
 39 40  2  0  0  0
 39 44  1  0  0  0
 39 45  1  0  0  0
 40 41  1  0  0  0
 40 46  1  0  0  0
 41 42  2  0  0  0
 41 47  1  0  0  0
 42 43  1  0  0  0
 43 44  2  0  0  0
 43 48  1  0  0  0
 44 49  1  0  0  0
M  CHG  1   3  -1
M  END
> <s_m_entry_id>
360

> <s_m_entry_name>
MCL1_41.1

> <r_m_Molecular_weight>
386.4313

> <s_m_Source_Path>
C:\Users\yujiethinkpad\Desktop\05A\MCL1\original

> <s_m_Source_File>
MCL1_41.sdf

> <r_user_dG.exp>
-7.12924538792258

> <s_fepmapper_entryid>
28

> <i_fepmapper_bias>
0

> <i_fepmapper_affinity>
1

> <r_fepmapper_exp_dG>
-7.12924538792

> <i_fepmapper_unit>
1

> <i_m_Source_File_Index>
1

> <s_m_job_name>
align_ligands_3

> <s_i_glide_gridfile>
glide-grid_MCL1

> <i_i_glide_lignum>
25

> <i_i_glide_rotatable_bonds>
8

> <r_i_docking_score>
-7.13451588705806

> <r_i_glide_ligand_efficiency>
-0.246017789208899

> <r_i_glide_ligand_efficiency_sa>
-0.755844592356149

> <r_i_glide_ligand_efficiency_ln>
-1.63362322242323

> <r_i_glide_gscore>
-7.13451588705806

> <r_i_glide_lipo>
-5.35078758921483

> <r_i_glide_hbond>
0

> <r_i_glide_metal>
0

> <r_i_glide_rewards>
-1.26663033052533

> <r_i_glide_evdw>
-31.884916305542

> <r_i_glide_ecoul>
1.09820652008057

> <r_i_glide_erotb>
0.912416869947118

> <r_i_glide_esite>
0

> <r_i_glide_emodel>
-20.2560497346826

> <r_i_glide_energy>
-30.7867097854614

> <r_i_glide_einternal>
3.88596510887146

> <i_i_glide_confnum>
41

> <i_i_glide_posenum>
190

> <r_i_glide_eff_state_penalty>
0

> <r_glide_shape_similarity>
0.678248643875122

> <i_phase_Input_Structure_Number>
41

> <i_phase_Structure_Number>
41

> <r_phase_Similarity_to_Reference>
0.760229546424453

> <i_phase_Reference_Structure>
1

> <s_phase_Alignment_Method>
snapped core

> <s_phase_Alignment_Reason>


> <s_phase_Core_SMARTS>
a1aaaaa1AAAAa(aa2)a(a23)aaaa3

> <s_f3d_frozen_atoms>
21 20 19 18 17 16 15 14 13 12 11 4 34 10 5 9 8 7 6 33 36 37 32 30 31 28 29 26 27 35 25 24 23 22

> <s_m_subgroup_title>
align_ligands_3->glide-dock_SP_redock_05676_lib1

> <s_m_subgroupid>
align_ligands_3->glide-dock_SP_redock_05676_lib11

> <b_m_subgroup_collapsed>
0

$$$$
