53
                    3D
 Schrodinger Suite 2021-2.
 44 46  0  0  1  0            999 V2000
    3.0246  -47.2604    6.9944 O   0  0  0  0  0  0
    2.9960  -48.5042    6.8710 C   0  0  0  0  0  0
    4.0304  -49.1832    7.0447 O   0  5  0  0  0  0
    1.7173  -49.1783    6.5232 C   0  0  0  0  0  0
   -0.1074  -50.8954    6.4429 C   0  0  0  0  0  0
   -1.0177  -51.9619    6.5205 C   0  0  0  0  0  0
   -2.3600  -51.7826    6.1407 C   0  0  0  0  0  0
   -2.7782  -50.5305    5.6661 C   0  0  0  0  0  0
   -1.8605  -49.4770    5.5713 C   0  0  0  0  0  0
   -0.5101  -49.6375    5.9492 C   0  0  0  0  0  0
    0.5664  -48.6906    5.9585 C   0  0  0  0  0  0
    0.3137  -47.3112    5.5435 C   0  0  0  0  0  0
   -0.2396  -46.7215    6.7936 C   0  0  0  0  0  0
   -0.6961  -45.3559    6.6884 C   0  0  0  0  0  0
   -1.9385  -45.1775    6.0286 O   0  0  0  0  0  0
   -3.0375  -45.0386    6.8285 C   0  0  0  0  0  0
   -3.2095  -45.7791    7.9933 C   0  0  0  0  0  0
   -4.4626  -45.8627    8.6014 C   0  0  0  0  0  0
   -4.6588  -46.9153    9.6564 C   0  0  0  0  0  0
   -5.5067  -45.0317    8.1774 C   0  0  0  0  0  0
   -6.9241  -44.9116    9.1223 Cl  0  0  0  0  0  0
   -5.3575  -44.2723    7.0078 C   0  0  0  0  0  0
   -6.5236  -43.5491    6.3884 C   0  0  0  0  0  0
   -4.1066  -44.2675    6.3653 C   0  0  0  0  0  0
   -0.7261  -52.8930    6.9827 H   0  0  0  0  0  0
   -3.4445  -53.0763    6.4431 Cl  0  0  0  0  0  0
   -3.8166  -50.3545    5.4295 H   0  0  0  0  0  0
   -2.1956  -48.4990    5.2734 H   0  0  0  0  0  0
   -0.3540  -47.2870    4.6789 H   0  0  0  0  0  0
    1.2398  -46.8544    5.1966 H   0  0  0  0  0  0
    0.5267  -46.7609    7.5696 H   0  0  0  0  0  0
   -1.0723  -47.3033    7.1737 H   0  0  0  0  0  0
    0.0469  -44.7673    6.1537 H   0  0  0  0  0  0
   -0.8789  -44.9188    7.6623 H   0  0  0  0  0  0
   -2.3783  -46.3277    8.4192 H   0  0  0  0  0  0
   -4.0530  -47.7853    9.4128 H   0  0  0  0  0  0
   -5.6893  -47.2669    9.6339 H   0  0  0  0  0  0
   -4.3735  -46.5591   10.6470 H   0  0  0  0  0  0
   -6.1915  -42.8411    5.6296 H   0  0  0  0  0  0
   -7.1869  -44.2660    5.9067 H   0  0  0  0  0  0
   -7.1034  -43.0089    7.1373 H   0  0  0  0  0  0
   -3.9754  -43.6782    5.4702 H   0  0  0  0  0  0
    1.5846  -50.8595    6.9155 N   0  0  0  0  0  0
    2.3548  -51.3540    7.3560 H   0  0  0  0  0  0
  1  2  2  0  0  0
  2  3  1  0  0  0
  2  4  1  0  0  0
  4 11  2  0  0  0
  4 43  1  0  0  0
  5  6  1  0  0  0
  5 10  2  0  0  0
  5 43  1  0  0  0
  6  7  2  0  0  0
  6 25  1  0  0  0
  7  8  1  0  0  0
  7 26  1  0  0  0
  8  9  2  0  0  0
  8 27  1  0  0  0
  9 10  1  0  0  0
  9 28  1  0  0  0
 10 11  1  0  0  0
 11 12  1  0  0  0
 12 29  1  0  0  0
 12 30  1  0  0  0
 12 13  1  0  0  0
 13 14  1  0  0  0
 13 31  1  0  0  0
 13 32  1  0  0  0
 14 15  1  0  0  0
 14 33  1  0  0  0
 14 34  1  0  0  0
 15 16  1  0  0  0
 16 17  1  0  0  0
 16 24  2  0  0  0
 17 18  2  0  0  0
 17 35  1  0  0  0
 18 19  1  0  0  0
 18 20  1  0  0  0
 19 36  1  0  0  0
 19 37  1  0  0  0
 19 38  1  0  0  0
 20 21  1  0  0  0
 20 22  2  0  0  0
 22 23  1  0  0  0
 22 24  1  0  0  0
 23 39  1  0  0  0
 23 40  1  0  0  0
 23 41  1  0  0  0
 24 42  1  0  0  0
 43 44  1  0  0  0
M  CHG  1   3  -1
M  END
> <s_m_entry_id>
342

> <s_m_entry_name>
MCL1_53.1

> <r_m_Molecular_weight>
391.27736

> <s_m_Source_Path>
C:\Users\yujiethinkpad\Desktop\05A\MCL1\original

> <s_m_Source_File>
MCL1_53.sdf

> <r_user_dG.exp>
-9.96486893166623

> <s_fepmapper_entryid>
36

> <i_fepmapper_bias>
0

> <i_fepmapper_affinity>
1

> <r_fepmapper_exp_dG>
-9.96486893167

> <i_fepmapper_unit>
1

> <i_m_Source_File_Index>
1

> <s_m_job_name>
align_ligands_3

> <s_i_glide_gridfile>
glide-grid_MCL1

> <i_i_glide_lignum>
37

> <i_i_glide_rotatable_bonds>
6

> <r_i_docking_score>
-8.31110962283098

> <r_i_glide_ligand_efficiency>
-0.319658062416576

> <r_i_glide_ligand_efficiency_sa>
-0.946985752115368

> <r_i_glide_ligand_efficiency_ln>
-1.95183682394686

> <r_i_glide_gscore>
-8.31110962283098

> <r_i_glide_lipo>
-5.04728202396412

> <r_i_glide_hbond>
-0.201681183603173

> <r_i_glide_metal>
0

> <r_i_glide_rewards>
-1.59019729962731

> <r_i_glide_evdw>
-31.9926280975342

> <r_i_glide_ecoul>
-3.18901610374451

> <r_i_glide_erotb>
0.637301348502223

> <r_i_glide_esite>
-0.0312666437002141

> <r_i_glide_emodel>
-43.8502189841216

> <r_i_glide_energy>
-35.1816442012787

> <r_i_glide_einternal>
7.1640739440918

> <i_i_glide_confnum>
258

> <i_i_glide_posenum>
157

> <r_i_glide_eff_state_penalty>
0

> <r_glide_shape_similarity>
0.890009820461273

> <i_phase_Input_Structure_Number>
23

> <i_phase_Structure_Number>
23

> <r_phase_Similarity_to_Reference>
0.960093291185393

> <i_phase_Reference_Structure>
1

> <s_phase_Alignment_Method>
snapped core

> <s_phase_Alignment_Reason>


> <s_phase_Core_SMARTS>
a1aaaaa1AAAAa(aa2)a(a23)aaaa3

> <s_f3d_frozen_atoms>
24 22 20 18 17 16 15 14 13 12 11 4 43 10 5 9 8 7 6 42 21 35 33 34 31 32 29 30 44 28 27 26 25

> <s_m_subgroup_title>
align_ligands_3->glide-dock_SP_redock_05676_lib1

> <s_m_subgroupid>
align_ligands_3->glide-dock_SP_redock_05676_lib11

> <b_m_subgroup_collapsed>
0

$$$$
