54
                    3D
 Schrodinger Suite 2021-2.
 44 47  0  0  1  0            999 V2000
    3.0246  -47.2604    6.9944 O   0  0  0  0  0  0
    2.9960  -48.5042    6.8710 C   0  0  0  0  0  0
    4.0304  -49.1832    7.0447 O   0  5  0  0  0  0
    1.7173  -49.1783    6.5232 C   0  0  0  0  0  0
   -0.1074  -50.8954    6.4429 C   0  0  0  0  0  0
   -1.0177  -51.9619    6.5205 C   0  0  0  0  0  0
   -2.3600  -51.7826    6.1407 C   0  0  0  0  0  0
   -2.7782  -50.5305    5.6661 C   0  0  0  0  0  0
   -1.8605  -49.4770    5.5713 C   0  0  0  0  0  0
   -0.5101  -49.6375    5.9492 C   0  0  0  0  0  0
    0.5664  -48.6906    5.9585 C   0  0  0  0  0  0
    0.3137  -47.3112    5.5435 C   0  0  0  0  0  0
   -0.2396  -46.7215    6.7936 C   0  0  0  0  0  0
   -0.6961  -45.3559    6.6884 C   0  0  0  0  0  0
   -1.9385  -45.1775    6.0286 O   0  0  0  0  0  0
   -3.0375  -45.0386    6.8285 C   0  0  0  0  0  0
   -5.5067  -45.0317    8.1774 C   0  0  0  0  0  0
   -4.4626  -45.8627    8.6014 C   0  0  0  0  0  0
   -3.2095  -45.7791    7.9933 C   0  0  0  0  0  0
   -0.7260  -52.8937    6.9810 H   0  0  0  0  0  0
   -3.4445  -53.0763    6.4431 Cl  0  0  0  0  0  0
   -3.8178  -50.3550    5.4288 H   0  0  0  0  0  0
   -2.2025  -48.4939    5.2822 H   0  0  0  0  0  0
    1.2468  -46.8608    5.2024 H   0  0  0  0  0  0
   -0.3532  -47.2879    4.6821 H   0  0  0  0  0  0
   -1.1132  -47.3068    7.0737 H   0  0  0  0  0  0
    0.4518  -46.8605    7.6225 H   0  0  0  0  0  0
   -0.8051  -44.9767    7.6986 H   0  0  0  0  0  0
    0.0753  -44.7682    6.1868 H   0  0  0  0  0  0
   -2.3954  -46.3027    8.4635 H   0  0  0  0  0  0
   -5.3575  -44.2723    7.0078 C   0  0  0  0  0  0
   -4.1066  -44.2675    6.3653 C   0  0  0  0  0  0
   -3.9785  -43.4581    5.1958 C   0  0  0  0  0  0
   -5.1286  -42.8567    4.6374 C   0  0  0  0  0  0
   -6.3869  -43.0052    5.2687 C   0  0  0  0  0  0
   -6.5009  -43.6577    6.4500 C   0  0  0  0  0  0
   -3.0429  -43.4264    4.6564 H   0  0  0  0  0  0
   -5.0510  -42.3146    3.7061 H   0  0  0  0  0  0
   -7.2610  -42.5408    4.8367 H   0  0  0  0  0  0
   -7.4681  -43.7721    6.9176 H   0  0  0  0  0  0
   -4.6223  -46.5838    9.3842 H   0  0  0  0  0  0
   -6.4518  -45.0502    8.7012 H   0  0  0  0  0  0
    1.5846  -50.8595    6.9155 N   0  0  0  0  0  0
    2.3579  -51.3578    7.3448 H   0  0  0  0  0  0
  1  2  2  0  0  0
  2  3  1  0  0  0
  2  4  1  0  0  0
  4 11  2  0  0  0
  4 43  1  0  0  0
  5  6  1  0  0  0
  5 10  2  0  0  0
  5 43  1  0  0  0
  6  7  2  0  0  0
  6 20  1  0  0  0
  7  8  1  0  0  0
  7 21  1  0  0  0
  8  9  2  0  0  0
  8 22  1  0  0  0
  9 10  1  0  0  0
  9 23  1  0  0  0
 10 11  1  0  0  0
 11 12  1  0  0  0
 12 24  1  0  0  0
 12 25  1  0  0  0
 12 13  1  0  0  0
 13 14  1  0  0  0
 13 26  1  0  0  0
 13 27  1  0  0  0
 14 15  1  0  0  0
 14 28  1  0  0  0
 14 29  1  0  0  0
 15 16  1  0  0  0
 16 19  2  0  0  0
 16 32  1  0  0  0
 17 18  2  0  0  0
 17 31  1  0  0  0
 17 42  1  0  0  0
 18 19  1  0  0  0
 18 41  1  0  0  0
 19 30  1  0  0  0
 31 32  2  0  0  0
 31 36  1  0  0  0
 32 33  1  0  0  0
 33 34  2  0  0  0
 33 37  1  0  0  0
 34 35  1  0  0  0
 34 38  1  0  0  0
 35 36  2  0  0  0
 35 39  1  0  0  0
 36 40  1  0  0  0
 43 44  1  0  0  0
M  CHG  1   3  -1
M  END
> <s_m_entry_id>
325

> <s_m_entry_name>
MCL1_54.1

> <r_m_Molecular_weight>
378.83869

> <s_m_Source_Path>
C:\Users\yujiethinkpad\Desktop\05A\MCL1\original

> <s_m_Source_File>
MCL1_54.sdf

> <r_user_dG.exp>
-9.77997627425646

> <s_fepmapper_entryid>
19

> <i_fepmapper_bias>
0

> <i_fepmapper_affinity>
1

> <r_fepmapper_exp_dG>
-9.77997627426

> <i_fepmapper_unit>
1

> <i_m_Source_File_Index>
1

> <s_m_job_name>
align_ligands_3

> <s_i_glide_gridfile>
glide-grid_MCL1

> <i_i_glide_lignum>
38

> <i_i_glide_rotatable_bonds>
6

> <r_i_docking_score>
-8.84898132315775

> <r_i_glide_ligand_efficiency>
-0.327740049005843

> <r_i_glide_ligand_efficiency_sa>
-0.98322014593735

> <r_i_glide_ligand_efficiency_ln>
-2.05989696517233

> <r_i_glide_gscore>
-8.84898132315775

> <r_i_glide_lipo>
-5.44437761053112

> <r_i_glide_hbond>
-0.2

> <r_i_glide_metal>
0

> <r_i_glide_rewards>
-1.72617286363636

> <r_i_glide_evdw>
-31.1895084381104

> <r_i_glide_ecoul>
-2.87323260307312

> <r_i_glide_erotb>
0.540262106106263

> <r_i_glide_esite>
-0.0282326427300477

> <r_i_glide_emodel>
-39.3135347225999

> <r_i_glide_energy>
-34.0627410411835

> <r_i_glide_einternal>
5.42647171020508

> <i_i_glide_confnum>
70

> <i_i_glide_posenum>
348

> <r_i_glide_eff_state_penalty>
0

> <r_glide_shape_similarity>
0.85242748260498

> <i_phase_Input_Structure_Number>
6

> <i_phase_Structure_Number>
6

> <r_phase_Similarity_to_Reference>
0.837875066020658

> <i_phase_Reference_Structure>
1

> <s_phase_Alignment_Method>
snapped core

> <s_phase_Alignment_Reason>


> <s_phase_Core_SMARTS>
a1aaaaa1AAAAa(aa2)a(a23)aaaa3

> <s_f3d_frozen_atoms>
32 31 17 18 19 16 15 14 13 12 11 4 43 10 5 9 8 7 6 42 41 30 28 29 26 27 24 25 44 23 22 21 20

> <s_m_subgroup_title>
align_ligands_3->glide-dock_SP_redock_05676_lib1

> <s_m_subgroupid>
align_ligands_3->glide-dock_SP_redock_05676_lib11

> <b_m_subgroup_collapsed>
0

$$$$
