65
                    3D
 Schrodinger Suite 2021-2.
 43 45  0  0  1  0            999 V2000
    3.0246  -47.2604    6.9944 O   0  0  0  0  0  0
    2.9960  -48.5042    6.8710 C   0  0  0  0  0  0
    4.0304  -49.1832    7.0447 O   0  5  0  0  0  0
    1.7173  -49.1783    6.5232 C   0  0  0  0  0  0
    1.5846  -50.8595    6.9155 S   0  0  0  0  0  0
   -0.1074  -50.8954    6.4429 C   0  0  0  0  0  0
   -1.0177  -51.9619    6.5205 C   0  0  0  0  0  0
   -2.3600  -51.7826    6.1407 C   0  0  0  0  0  0
   -2.7782  -50.5305    5.6661 C   0  0  0  0  0  0
   -1.8605  -49.4770    5.5713 C   0  0  0  0  0  0
   -0.5101  -49.6375    5.9492 C   0  0  0  0  0  0
    0.5664  -48.6906    5.9585 C   0  0  0  0  0  0
    0.3137  -47.3112    5.5435 C   0  0  0  0  0  0
   -0.2396  -46.7215    6.7936 C   0  0  0  0  0  0
   -0.6961  -45.3559    6.6884 C   0  0  0  0  0  0
   -1.9385  -45.1775    6.0286 O   0  0  0  0  0  0
   -3.0375  -45.0386    6.8285 C   0  0  0  0  0  0
   -4.1066  -44.2675    6.3653 C   0  0  0  0  0  0
   -5.3575  -44.2723    7.0078 C   0  0  0  0  0  0
   -6.5236  -43.5491    6.3884 C   0  0  0  0  0  0
   -5.5067  -45.0317    8.1774 C   0  0  0  0  0  0
   -6.9241  -44.9116    9.1223 Cl  0  0  0  0  0  0
   -4.4626  -45.8627    8.6014 C   0  0  0  0  0  0
   -4.6588  -46.9153    9.6564 C   0  0  0  0  0  0
   -3.2095  -45.7791    7.9933 C   0  0  0  0  0  0
   -0.5130  -53.5034    7.1305 Cl  0  0  0  0  0  0
   -3.0639  -52.6018    6.2242 H   0  0  0  0  0  0
   -3.8078  -50.3763    5.3746 H   0  0  0  0  0  0
   -2.2010  -48.5155    5.2130 H   0  0  0  0  0  0
   -0.3457  -47.2951    4.6758 H   0  0  0  0  0  0
    1.2445  -46.8584    5.1984 H   0  0  0  0  0  0
    0.5259  -46.7546    7.5651 H   0  0  0  0  0  0
   -1.0646  -47.3046    7.1927 H   0  0  0  0  0  0
    0.0405  -44.7500    6.1560 H   0  0  0  0  0  0
   -0.8791  -44.9298    7.6698 H   0  0  0  0  0  0
   -3.9745  -43.6822    5.4684 H   0  0  0  0  0  0
   -6.1915  -42.8411    5.6296 H   0  0  0  0  0  0
   -7.1034  -43.0089    7.1373 H   0  0  0  0  0  0
   -7.1869  -44.2660    5.9067 H   0  0  0  0  0  0
   -4.0530  -47.7853    9.4128 H   0  0  0  0  0  0
   -4.3735  -46.5591   10.6470 H   0  0  0  0  0  0
   -5.6893  -47.2669    9.6339 H   0  0  0  0  0  0
   -2.3842  -46.3229    8.4298 H   0  0  0  0  0  0
  1  2  2  0  0  0
  2  3  1  0  0  0
  2  4  1  0  0  0
  4  5  1  0  0  0
  4 12  2  0  0  0
  5  6  1  0  0  0
  6  7  1  0  0  0
  6 11  2  0  0  0
  7  8  2  0  0  0
  7 26  1  0  0  0
  8  9  1  0  0  0
  8 27  1  0  0  0
  9 10  2  0  0  0
  9 28  1  0  0  0
 10 11  1  0  0  0
 10 29  1  0  0  0
 11 12  1  0  0  0
 12 13  1  0  0  0
 13 30  1  0  0  0
 13 31  1  0  0  0
 13 14  1  0  0  0
 14 15  1  0  0  0
 14 32  1  0  0  0
 14 33  1  0  0  0
 15 16  1  0  0  0
 15 34  1  0  0  0
 15 35  1  0  0  0
 16 17  1  0  0  0
 17 18  1  0  0  0
 17 25  2  0  0  0
 18 19  2  0  0  0
 18 36  1  0  0  0
 19 20  1  0  0  0
 19 21  1  0  0  0
 20 37  1  0  0  0
 20 38  1  0  0  0
 20 39  1  0  0  0
 21 22  1  0  0  0
 21 23  2  0  0  0
 23 24  1  0  0  0
 23 25  1  0  0  0
 24 40  1  0  0  0
 24 41  1  0  0  0
 24 42  1  0  0  0
 25 43  1  0  0  0
M  CHG  1   3  -1
M  END
> <s_m_entry_id>
341

> <s_m_entry_name>
MCL1_65.1

> <r_m_Molecular_weight>
408.32669

> <s_m_Source_Path>
C:\Users\yujiethinkpad\Desktop\05A\MCL1\original

> <s_m_Source_File>
MCL1_65.sdf

> <r_user_dG.exp>
-8.40733622276992

> <s_fepmapper_entryid>
29

> <i_fepmapper_bias>
0

> <i_fepmapper_affinity>
1

> <r_fepmapper_exp_dG>
-8.40733622277

> <i_fepmapper_unit>
1

> <i_m_Source_File_Index>
1

> <s_m_job_name>
align_ligands_3

> <s_i_glide_gridfile>
glide-grid_MCL1

> <i_i_glide_lignum>
5

> <i_i_glide_rotatable_bonds>
6

> <r_i_docking_score>
-8.3194250799017

> <r_i_glide_ligand_efficiency>
-0.319977887688527

> <r_i_glide_ligand_efficiency_sa>
-0.947933233225071

> <r_i_glide_ligand_efficiency_ln>
-1.95378968175468

> <r_i_glide_gscore>
-8.3194250799017

> <r_i_glide_lipo>
-5.08678660271137

> <r_i_glide_hbond>
-0.238570190514299

> <r_i_glide_metal>
0

> <r_i_glide_rewards>
-1.47916632097076

> <r_i_glide_evdw>
-32.8323860168457

> <r_i_glide_ecoul>
-2.87001585960388

> <r_i_glide_erotb>
0.590202387595814

> <r_i_glide_esite>
-0.0329826735182215

> <r_i_glide_emodel>
-49.7974565666076

> <r_i_glide_energy>
-35.7024018764496

> <r_i_glide_einternal>
4.89407968521118

> <i_i_glide_confnum>
247

> <i_i_glide_posenum>
10

> <r_i_glide_eff_state_penalty>
0

> <r_glide_shape_similarity>
0.910111606121063

> <i_phase_Input_Structure_Number>
22

> <i_phase_Structure_Number>
22

> <r_phase_Similarity_to_Reference>
0.97874005866862

> <i_phase_Reference_Structure>
1

> <s_phase_Alignment_Method>
snapped core

> <s_phase_Alignment_Reason>


> <s_phase_Core_SMARTS>
a1aaaaa1AAAAa(aa2)a(a23)aaaa3

> <s_f3d_frozen_atoms>
18 19 21 23 25 17 16 15 14 13 12 4 5 11 6 10 9 8 7 36 22 43 34 35 32 33 30 31 29 28 27 26

> <s_m_subgroup_title>
align_ligands_3->glide-dock_SP_redock_05676_lib1

> <s_m_subgroupid>
align_ligands_3->glide-dock_SP_redock_05676_lib11

> <b_m_subgroup_collapsed>
0

$$$$
