66
                    3D
 Schrodinger Suite 2021-2.
 43 46  0  0  1  0            999 V2000
    3.0246  -47.2604    6.9944 O   0  0  0  0  0  0
    2.9960  -48.5042    6.8710 C   0  0  0  0  0  0
    4.0304  -49.1832    7.0447 O   0  5  0  0  0  0
    1.7173  -49.1783    6.5232 C   0  0  0  0  0  0
    1.5846  -50.8595    6.9155 S   0  0  0  0  0  0
   -0.1074  -50.8954    6.4429 C   0  0  0  0  0  0
   -1.0177  -51.9619    6.5205 C   0  0  0  0  0  0
   -2.3600  -51.7826    6.1407 C   0  0  0  0  0  0
   -2.7782  -50.5305    5.6661 C   0  0  0  0  0  0
   -1.8605  -49.4770    5.5713 C   0  0  0  0  0  0
   -0.5101  -49.6375    5.9492 C   0  0  0  0  0  0
    0.5664  -48.6906    5.9585 C   0  0  0  0  0  0
    0.3137  -47.3112    5.5435 C   0  0  0  0  0  0
   -0.2396  -46.7215    6.7936 C   0  0  0  0  0  0
   -0.6961  -45.3559    6.6884 C   0  0  0  0  0  0
   -1.9385  -45.1775    6.0286 O   0  0  0  0  0  0
   -3.0375  -45.0386    6.8285 C   0  0  0  0  0  0
   -5.5067  -45.0317    8.1774 C   0  0  0  0  0  0
   -4.4626  -45.8627    8.6014 C   0  0  0  0  0  0
   -3.2095  -45.7791    7.9933 C   0  0  0  0  0  0
   -0.5130  -53.5034    7.1305 Cl  0  0  0  0  0  0
   -3.0616  -52.6005    6.2247 H   0  0  0  0  0  0
   -3.8066  -50.3776    5.3691 H   0  0  0  0  0  0
   -2.2135  -48.5155    5.2281 H   0  0  0  0  0  0
    1.2507  -46.8697    5.2015 H   0  0  0  0  0  0
   -0.3340  -47.2832    4.6674 H   0  0  0  0  0  0
   -1.0585  -47.3447    7.1494 H   0  0  0  0  0  0
    0.5103  -46.8653    7.5470 H   0  0  0  0  0  0
   -0.7250  -44.9328    7.6908 H   0  0  0  0  0  0
    0.0687  -44.8119    6.1321 H   0  0  0  0  0  0
   -2.3894  -46.2944    8.4680 H   0  0  0  0  0  0
   -5.3575  -44.2723    7.0078 C   0  0  0  0  0  0
   -4.1066  -44.2675    6.3653 C   0  0  0  0  0  0
   -3.9206  -43.4575    5.2093 C   0  0  0  0  0  0
   -5.0225  -42.7888    4.6368 C   0  0  0  0  0  0
   -6.3153  -42.9289    5.1966 C   0  0  0  0  0  0
   -6.5077  -43.6607    6.3921 C   0  0  0  0  0  0
   -2.9646  -43.4176    4.7089 H   0  0  0  0  0  0
   -4.8866  -42.2088    3.7359 H   0  0  0  0  0  0
   -7.1393  -42.4539    4.6972 H   0  0  0  0  0  0
   -7.5818  -43.7725    6.7032 H   0  0  0  0  0  0
   -4.6382  -46.5928    9.3690 H   0  0  0  0  0  0
   -6.4554  -45.0618    8.6924 H   0  0  0  0  0  0
  1  2  2  0  0  0
  2  3  1  0  0  0
  2  4  1  0  0  0
  4  5  1  0  0  0
  4 12  2  0  0  0
  5  6  1  0  0  0
  6  7  1  0  0  0
  6 11  2  0  0  0
  7  8  2  0  0  0
  7 21  1  0  0  0
  8  9  1  0  0  0
  8 22  1  0  0  0
  9 10  2  0  0  0
  9 23  1  0  0  0
 10 11  1  0  0  0
 10 24  1  0  0  0
 11 12  1  0  0  0
 12 13  1  0  0  0
 13 25  1  0  0  0
 13 26  1  0  0  0
 13 14  1  0  0  0
 14 15  1  0  0  0
 14 27  1  0  0  0
 14 28  1  0  0  0
 15 16  1  0  0  0
 15 29  1  0  0  0
 15 30  1  0  0  0
 16 17  1  0  0  0
 17 20  2  0  0  0
 17 33  1  0  0  0
 18 19  2  0  0  0
 18 32  1  0  0  0
 18 43  1  0  0  0
 19 20  1  0  0  0
 19 42  1  0  0  0
 20 31  1  0  0  0
 32 33  2  0  0  0
 32 37  1  0  0  0
 33 34  1  0  0  0
 34 35  2  0  0  0
 34 38  1  0  0  0
 35 36  1  0  0  0
 35 39  1  0  0  0
 36 37  2  0  0  0
 36 40  1  0  0  0
 37 41  1  0  0  0
M  CHG  1   3  -1
M  END
> <s_m_entry_id>
328

> <s_m_entry_name>
MCL1_66.1

> <r_m_Molecular_weight>
395.88802

> <s_m_Source_Path>
C:\Users\yujiethinkpad\Desktop\05A\MCL1\original

> <s_m_Source_File>
MCL1_66.sdf

> <r_user_dG.exp>
-8.43167143836328

> <s_fepmapper_entryid>
15

> <i_fepmapper_bias>
0

> <i_fepmapper_affinity>
1

> <r_fepmapper_exp_dG>
-8.43167143836

> <i_fepmapper_unit>
1

> <i_m_Source_File_Index>
1

> <s_m_job_name>
align_ligands_3

> <s_i_glide_gridfile>
glide-grid_MCL1

> <i_i_glide_lignum>
6

> <i_i_glide_rotatable_bonds>
6

> <r_i_docking_score>
-8.78003907148185

> <r_i_glide_ligand_efficiency>
-0.325186632277106

> <r_i_glide_ligand_efficiency_sa>
-0.975559895759555

> <r_i_glide_ligand_efficiency_ln>
-2.04384834558403

> <r_i_glide_gscore>
-8.78003907148185

> <r_i_glide_lipo>
-5.53679238866278

> <r_i_glide_hbond>
-0.280215883259228

> <r_i_glide_metal>
0

> <r_i_glide_rewards>
-1.60991359090909

> <r_i_glide_evdw>
-30.5156021118164

> <r_i_glide_ecoul>
-1.98547506332397

> <r_i_glide_erotb>
0.499214537276342

> <r_i_glide_esite>
-0.0287303808376829

> <r_i_glide_emodel>
-39.4724398456304

> <r_i_glide_energy>
-32.5010771751404

> <r_i_glide_einternal>
5.22086906433105

> <i_i_glide_confnum>
21

> <i_i_glide_posenum>
256

> <r_i_glide_eff_state_penalty>
0

> <r_glide_shape_similarity>
0.86377739906311

> <i_phase_Input_Structure_Number>
9

> <i_phase_Structure_Number>
9

> <r_phase_Similarity_to_Reference>
0.856303415845381

> <i_phase_Reference_Structure>
1

> <s_phase_Alignment_Method>
snapped core

> <s_phase_Alignment_Reason>


> <s_phase_Core_SMARTS>
a1aaaaa1AAAAa(aa2)a(a23)aaaa3

> <s_f3d_frozen_atoms>
33 32 18 19 20 17 16 15 14 13 12 4 5 11 6 10 9 8 7 43 42 31 29 30 27 28 25 26 24 23 22 21

> <s_m_subgroup_title>
align_ligands_3->glide-dock_SP_redock_05676_lib1

> <s_m_subgroupid>
align_ligands_3->glide-dock_SP_redock_05676_lib11

> <b_m_subgroup_collapsed>
0

$$$$
