27
                    3D
 Schrodinger Suite 2021-2.
 38 40  0  0  1  0            999 V2000
    3.2599  -47.6027    6.7592 O   0  0  0  0  0  0
    3.0148  -48.8104    6.5588 C   0  0  0  0  0  0
    3.8989  -49.6886    6.5705 O   0  5  0  0  0  0
    1.6262  -49.1977    6.3505 C   0  0  0  0  0  0
   -0.1430  -50.6297    6.4216 C   0  0  0  0  0  0
   -1.0567  -51.6809    6.5998 C   0  0  0  0  0  0
   -2.4254  -51.4544    6.3784 C   0  0  0  0  0  0
   -2.8650  -50.1923    5.9655 C   0  0  0  0  0  0
   -1.9401  -49.1624    5.7691 C   0  0  0  0  0  0
   -0.5697  -49.3512    6.0067 C   0  0  0  0  0  0
    0.5453  -48.4712    5.9487 C   0  0  0  0  0  0
    0.5026  -47.0435    5.5205 C   0  0  0  0  0  0
    0.2867  -46.0455    6.6594 C   0  0  0  0  0  0
   -1.0576  -46.2060    7.3992 C   0  0  0  0  0  0
   -2.2421  -45.7176    6.7837 O   0  0  0  0  0  0
   -3.4023  -45.7745    7.5478 C   0  0  0  0  0  0
   -4.5077  -45.0062    7.1485 C   0  0  0  0  0  0
   -5.6943  -44.9563    7.9036 C   0  0  0  0  0  0
   -5.8042  -45.7039    9.0813 C   0  0  0  0  0  0
   -4.7392  -46.5209    9.4694 C   0  0  0  0  0  0
   -3.5487  -46.5504    8.7198 C   0  0  0  0  0  0
   -0.7150  -52.6546    6.9093 H   0  0  0  0  0  0
   -3.1394  -52.2588    6.5143 H   0  0  0  0  0  0
   -3.9130  -50.0168    5.7824 H   0  0  0  0  0  0
   -2.2964  -48.1912    5.4579 H   0  0  0  0  0  0
   -0.2859  -46.9059    4.7832 H   0  0  0  0  0  0
    1.4264  -46.7867    4.9963 H   0  0  0  0  0  0
    0.4608  -45.0167    6.3281 H   0  0  0  0  0  0
    1.0787  -46.2090    7.3885 H   0  0  0  0  0  0
   -0.9635  -45.7339    8.3744 H   0  0  0  0  0  0
   -1.2188  -47.2624    7.5522 H   0  0  0  0  0  0
   -4.4325  -44.4179    6.2471 H   0  0  0  0  0  0
   -2.7522  -47.1756    9.0888 H   0  0  0  0  0  0
    1.2209  -50.4995    6.5736 N   0  0  0  0  0  0
    1.8797  -51.2032    6.8571 H   0  0  0  0  0  0
   -4.8296  -47.1343   10.3502 H   0  0  0  0  0  0
   -6.7195  -45.6844    9.6566 H   0  0  0  0  0  0
   -6.5151  -44.3297    7.5889 H   0  0  0  0  0  0
  1  2  2  0  0  0
  2  3  1  0  0  0
  2  4  1  0  0  0
  4 11  2  0  0  0
  4 34  1  0  0  0
  5  6  1  0  0  0
  5 10  2  0  0  0
  5 34  1  0  0  0
  6  7  2  0  0  0
  6 22  1  0  0  0
  7  8  1  0  0  0
  7 23  1  0  0  0
  8  9  2  0  0  0
  8 24  1  0  0  0
  9 10  1  0  0  0
  9 25  1  0  0  0
 10 11  1  0  0  0
 11 12  1  0  0  0
 12 26  1  0  0  0
 12 27  1  0  0  0
 12 13  1  0  0  0
 13 14  1  0  0  0
 13 28  1  0  0  0
 13 29  1  0  0  0
 14 15  1  0  0  0
 14 30  1  0  0  0
 14 31  1  0  0  0
 15 16  1  0  0  0
 16 17  1  0  0  0
 16 21  2  0  0  0
 17 18  2  0  0  0
 17 32  1  0  0  0
 18 19  1  0  0  0
 18 38  1  0  0  0
 19 20  2  0  0  0
 19 37  1  0  0  0
 20 21  1  0  0  0
 20 36  1  0  0  0
 21 33  1  0  0  0
 34 35  1  0  0  0
M  CHG  1   3  -1
M  END
> <s_m_entry_id>
104

> <s_m_entry_name>
MCL1_27.1

> <r_m_Molecular_weight>
294.33312

> <s_m_Source_Path>
C:\Users\yujiethinkpad\Desktop\05A\MCL1\original

> <s_m_Source_File>
MCL1_27.sdf

> <r_user_dG.exp>
-6.11639066902356

> <s_fepmapper_entryid>
32

> <i_fepmapper_bias>
0

> <i_fepmapper_affinity>
1

> <r_fepmapper_exp_dG>
-6.11639066902

> <i_fepmapper_unit>
1

> <i_m_Source_File_Index>
1

> <s_m_job_name>
glide-dock_SP_redock_1080

> <s_i_glide_gridfile>
glide-grid_MCL1

> <i_i_glide_lignum>
12

> <i_i_glide_rotatable_bonds>
6

> <r_i_docking_score>
-7.50159773103422

> <r_i_glide_ligand_efficiency>
-0.34098171504701

> <r_i_glide_ligand_efficiency_sa>
-0.95544417561161

> <r_i_glide_ligand_efficiency_ln>
-1.83366411289039

> <r_i_glide_gscore>
-7.50159773103422

> <r_i_glide_lipo>
-4.37192699038651

> <r_i_glide_hbond>
-0.2

> <r_i_glide_metal>
0

> <r_i_glide_rewards>
-2.02318971317311

> <r_i_glide_evdw>
-27.3727359771729

> <r_i_glide_ecoul>
-2.47896218299866

> <r_i_glide_erotb>
0.844395278781436

> <r_i_glide_esite>
-0.0103951799476025

> <r_i_glide_emodel>
-34.5850320746657

> <r_i_glide_energy>
-29.8516981601715

> <r_i_glide_einternal>
8.01303577423096

> <i_i_glide_confnum>
65

> <i_i_glide_posenum>
185

> <r_i_glide_eff_state_penalty>
0

> <r_glide_shape_similarity>
0.859836399555206

> <s_m_subgroup_title>
glide-dock_SP_redock_1080_lib1

> <s_m_subgroupid>
glide-dock_SP_redock_1080_lib1

> <b_m_subgroup_collapsed>
0

$$$$
