42
                    3D
 Schrodinger Suite 2021-2.
 44 47  0  0  1  0            999 V2000
    3.2592  -47.5831    6.7518 O   0  0  0  0  0  0
    3.0320  -48.8015    6.5556 C   0  0  0  0  0  0
    3.9283  -49.6767    6.5623 O   0  5  0  0  0  0
    1.6242  -49.2021    6.3466 C   0  0  0  0  0  0
   -0.1670  -50.6599    6.4361 C   0  0  0  0  0  0
   -1.0841  -51.7299    6.6073 C   0  0  0  0  0  0
   -2.4664  -51.4985    6.3908 C   0  0  0  0  0  0
   -2.9218  -50.2216    5.9911 C   0  0  0  0  0  0
   -1.9969  -49.1701    5.8042 C   0  0  0  0  0  0
   -0.6073  -49.3567    6.0365 C   0  0  0  0  0  0
    0.5245  -48.4720    5.9504 C   0  0  0  0  0  0
    0.4678  -47.0326    5.4971 C   0  0  0  0  0  0
    0.3343  -46.0111    6.6403 C   0  0  0  0  0  0
   -0.9858  -46.0321    7.4538 C   0  0  0  0  0  0
   -2.2047  -45.7438    6.7722 O   0  0  0  0  0  0
   -3.3606  -45.7815    7.5505 C   0  0  0  0  0  0
   -5.7749  -45.7633    9.1294 C   0  0  0  0  0  0
   -4.6897  -46.5766    9.4967 C   0  0  0  0  0  0
   -3.5036  -46.5849    8.7254 C   0  0  0  0  0  0
   -0.7306  -52.7060    6.9066 H   0  0  0  0  0  0
   -3.1708  -52.3066    6.5231 H   0  0  0  0  0  0
   -3.9749  -50.0546    5.8182 H   0  0  0  0  0  0
   -2.3618  -48.1999    5.4998 H   0  0  0  0  0  0
    1.3635  -46.8009    4.9214 H   0  0  0  0  0  0
   -0.3594  -46.9135    4.7984 H   0  0  0  0  0  0
    1.1473  -46.2038    7.3416 H   0  0  0  0  0  0
    0.5049  -45.0092    6.2503 H   0  0  0  0  0  0
   -1.1408  -47.0088    7.8471 H   0  0  0  0  0  0
   -0.8927  -45.3642    8.3116 H   0  0  0  0  0  0
   -2.7328  -47.2514    9.0684 H   0  0  0  0  0  0
   -5.6937  -45.0187    7.9320 C   0  0  0  0  0  0
   -4.4882  -45.0063    7.1521 C   0  0  0  0  0  0
   -4.4432  -44.2340    5.9507 C   0  0  0  0  0  0
   -5.6338  -43.6594    5.4415 C   0  0  0  0  0  0
   -6.8555  -43.8057    6.1462 C   0  0  0  0  0  0
   -6.8709  -44.4155    7.4279 C   0  0  0  0  0  0
   -3.5449  -44.2062    5.3500 H   0  0  0  0  0  0
   -5.6246  -43.1472    4.4896 H   0  0  0  0  0  0
   -7.7673  -43.3873    5.7406 H   0  0  0  0  0  0
   -7.8012  -44.4825    7.9762 H   0  0  0  0  0  0
   -4.7658  -47.2217   10.3522 H   0  0  0  0  0  0
   -6.6879  -45.7827    9.7037 H   0  0  0  0  0  0
    1.2166  -50.5262    6.5803 N   0  0  0  0  0  0
    1.8870  -51.2357    6.8600 H   0  0  0  0  0  0
  1  2  2  0  0  0
  2  3  1  0  0  0
  2  4  1  0  0  0
  4 11  2  0  0  0
  4 43  1  0  0  0
  5  6  1  0  0  0
  5 10  2  0  0  0
  5 43  1  0  0  0
  6  7  2  0  0  0
  6 20  1  0  0  0
  7  8  1  0  0  0
  7 21  1  0  0  0
  8  9  2  0  0  0
  8 22  1  0  0  0
  9 10  1  0  0  0
  9 23  1  0  0  0
 10 11  1  0  0  0
 11 12  1  0  0  0
 12 24  1  0  0  0
 12 25  1  0  0  0
 12 13  1  0  0  0
 13 14  1  0  0  0
 13 26  1  0  0  0
 13 27  1  0  0  0
 14 15  1  0  0  0
 14 28  1  0  0  0
 14 29  1  0  0  0
 15 16  1  0  0  0
 16 19  2  0  0  0
 16 32  1  0  0  0
 17 18  2  0  0  0
 17 31  1  0  0  0
 17 42  1  0  0  0
 18 19  1  0  0  0
 18 41  1  0  0  0
 19 30  1  0  0  0
 31 32  2  0  0  0
 31 36  1  0  0  0
 32 33  1  0  0  0
 33 34  2  0  0  0
 33 37  1  0  0  0
 34 35  1  0  0  0
 34 38  1  0  0  0
 35 36  2  0  0  0
 35 39  1  0  0  0
 36 40  1  0  0  0
 43 44  1  0  0  0
M  CHG  1   3  -1
M  END
> <s_m_entry_id>
72

> <s_m_entry_name>
MCL1_42.1

> <r_m_Molecular_weight>
344.39366

> <s_m_Source_Path>
C:\Users\yujiethinkpad\Desktop\05A\MCL1\original

> <s_m_Source_File>
MCL1_42.sdf

> <r_user_dG.exp>
-8.89674735927531

> <s_fepmapper_entryid>
40

> <i_fepmapper_bias>
0

> <i_fepmapper_affinity>
1

> <r_fepmapper_exp_dG>
-8.89674735928

> <i_fepmapper_unit>
1

> <i_m_Source_File_Index>
1

> <s_m_job_name>
glide-dock_SP_redock_1080

> <s_i_glide_gridfile>
glide-grid_MCL1

> <i_i_glide_lignum>
27

> <i_i_glide_rotatable_bonds>
6

> <r_i_docking_score>
-9.05452315848286

> <r_i_glide_ligand_efficiency>
-0.348250890710879

> <r_i_glide_ligand_efficiency_sa>
-1.03169189342989

> <r_i_glide_ligand_efficiency_ln>
-2.12642505345594

> <r_i_glide_gscore>
-9.05452315848286

> <r_i_glide_lipo>
-5.53438790722224

> <r_i_glide_hbond>
-0.2

> <r_i_glide_metal>
0

> <r_i_glide_rewards>
-1.9610235

> <r_i_glide_evdw>
-31.4287147521973

> <r_i_glide_ecoul>
-2.77208733558655

> <r_i_glide_erotb>
0.640363311436548

> <r_i_glide_esite>
-0.012226224749329

> <r_i_glide_emodel>
-48.599208865452

> <r_i_glide_energy>
-34.2008020877838

> <r_i_glide_einternal>
3.82033109664917

> <i_i_glide_confnum>
72

> <i_i_glide_posenum>
60

> <r_i_glide_eff_state_penalty>
0

> <r_glide_shape_similarity>
0.897382318973541

> <s_m_subgroup_title>
glide-dock_SP_redock_1080_lib1

> <s_m_subgroupid>
glide-dock_SP_redock_1080_lib1

> <b_m_subgroup_collapsed>
0

$$$$
