44
                    3D
 Schrodinger Suite 2021-2.
 44 47  0  0  1  0            999 V2000
    3.2602  -47.6184    6.7520 O   0  0  0  0  0  0
    3.0449  -48.8438    6.5962 C   0  0  0  0  0  0
    3.9484  -49.7083    6.6545 O   0  5  0  0  0  0
    1.6463  -49.2539    6.3684 C   0  0  0  0  0  0
   -0.1569  -50.6782    6.4458 C   0  0  0  0  0  0
   -1.0905  -51.7272    6.6193 C   0  0  0  0  0  0
   -2.4648  -51.4838    6.3845 C   0  0  0  0  0  0
   -2.8986  -50.2062    5.9607 C   0  0  0  0  0  0
   -1.9600  -49.1762    5.7644 C   0  0  0  0  0  0
   -0.5785  -49.3795    6.0167 C   0  0  0  0  0  0
    0.5681  -48.5136    5.9505 C   0  0  0  0  0  0
    0.5688  -47.0778    5.4719 C   0  0  0  0  0  0
    0.4172  -46.0491    6.6042 C   0  0  0  0  0  0
   -0.9146  -46.1915    7.3559 C   0  0  0  0  0  0
   -2.0770  -45.8048    6.6321 O   0  0  0  0  0  0
   -3.2378  -45.7882    7.3887 C   0  0  0  0  0  0
   -5.5424  -45.5590    9.0341 C   0  0  0  0  0  0
   -4.5098  -46.4359    9.3995 C   0  0  0  0  0  0
   -3.3788  -46.5574    8.5809 C   0  0  0  0  0  0
   -0.7540  -52.7024    6.9400 H   0  0  0  0  0  0
   -3.1847  -52.2746    6.5260 H   0  0  0  0  0  0
   -3.9478  -50.0205    5.7817 H   0  0  0  0  0  0
   -2.2992  -48.2068    5.4338 H   0  0  0  0  0  0
    1.4903  -46.8710    4.9232 H   0  0  0  0  0  0
   -0.2361  -46.9380    4.7506 H   0  0  0  0  0  0
    1.2231  -46.2028    7.3230 H   0  0  0  0  0  0
    0.5335  -45.0278    6.2294 H   0  0  0  0  0  0
   -1.1071  -47.2359    7.5509 H   0  0  0  0  0  0
   -0.8500  -45.6545    8.3063 H   0  0  0  0  0  0
   -2.6134  -47.2196    8.9460 H   0  0  0  0  0  0
   -5.5339  -44.9203    7.7660 C   0  0  0  0  0  0
   -4.3470  -45.0064    6.9617 C   0  0  0  0  0  0
   -4.3207  -44.3172    5.7178 C   0  0  0  0  0  0
   -5.4829  -43.7115    5.1906 C   0  0  0  0  0  0
   -6.6679  -43.6981    5.9506 C   0  0  0  0  0  0
   -6.6698  -44.2121    7.2716 C   0  0  0  0  0  0
   -3.4362  -44.3622    5.0982 H   0  0  0  0  0  0
   -5.4618  -43.2777    4.2017 H   0  0  0  0  0  0
   -7.5566  -43.2371    5.5522 H   0  0  0  0  0  0
   -7.5741  -44.1481    7.8588 H   0  0  0  0  0  0
   -4.5427  -46.9570   10.3479 H   0  0  0  0  0  0
   -6.7424  -45.2385   10.2204 Cl  0  0  0  0  0  0
    1.2237  -50.5660    6.6107 N   0  0  0  0  0  0
    1.8786  -51.2828    6.9102 H   0  0  0  0  0  0
  1  2  2  0  0  0
  2  3  1  0  0  0
  2  4  1  0  0  0
  4 11  2  0  0  0
  4 43  1  0  0  0
  5  6  1  0  0  0
  5 10  2  0  0  0
  5 43  1  0  0  0
  6  7  2  0  0  0
  6 20  1  0  0  0
  7  8  1  0  0  0
  7 21  1  0  0  0
  8  9  2  0  0  0
  8 22  1  0  0  0
  9 10  1  0  0  0
  9 23  1  0  0  0
 10 11  1  0  0  0
 11 12  1  0  0  0
 12 24  1  0  0  0
 12 25  1  0  0  0
 12 13  1  0  0  0
 13 14  1  0  0  0
 13 26  1  0  0  0
 13 27  1  0  0  0
 14 15  1  0  0  0
 14 28  1  0  0  0
 14 29  1  0  0  0
 15 16  1  0  0  0
 16 19  2  0  0  0
 16 32  1  0  0  0
 17 18  2  0  0  0
 17 31  1  0  0  0
 17 42  1  0  0  0
 18 19  1  0  0  0
 18 41  1  0  0  0
 19 30  1  0  0  0
 31 32  2  0  0  0
 31 36  1  0  0  0
 32 33  1  0  0  0
 33 34  2  0  0  0
 33 37  1  0  0  0
 34 35  1  0  0  0
 34 38  1  0  0  0
 35 36  2  0  0  0
 35 39  1  0  0  0
 36 40  1  0  0  0
 43 44  1  0  0  0
M  CHG  1   3  -1
M  END
> <s_m_entry_id>
71

> <s_m_entry_name>
MCL1_44.1

> <r_m_Molecular_weight>
378.83869

> <s_m_Source_Path>
C:\Users\yujiethinkpad\Desktop\05A\MCL1\original

> <s_m_Source_File>
MCL1_44.sdf

> <r_user_dG.exp>
-8.6733813532598

> <s_fepmapper_entryid>
20

> <i_fepmapper_bias>
0

> <i_fepmapper_affinity>
1

> <r_fepmapper_exp_dG>
-8.67338135326

> <i_fepmapper_unit>
1

> <i_m_Source_File_Index>
1

> <s_m_job_name>
glide-dock_SP_redock_1080

> <s_i_glide_gridfile>
glide-grid_MCL1

> <i_i_glide_lignum>
29

> <i_i_glide_rotatable_bonds>
6

> <r_i_docking_score>
-9.0683235884321

> <r_i_glide_ligand_efficiency>
-0.335863836608596

> <r_i_glide_ligand_efficiency_sa>
-1.00759150871884

> <r_i_glide_ligand_efficiency_ln>
-2.11095622838834

> <r_i_glide_gscore>
-9.0683235884321

> <r_i_glide_lipo>
-5.71907070691171

> <r_i_glide_hbond>
-0.2

> <r_i_glide_metal>
0

> <r_i_glide_rewards>
-1.72617286363636

> <r_i_glide_evdw>
-31.1904296875

> <r_i_glide_ecoul>
-2.60683441162109

> <r_i_glide_erotb>
0.540262106106263

> <r_i_glide_esite>
-0.0127954778721301

> <r_i_glide_emodel>
-44.82828921451

> <r_i_glide_energy>
-33.7972640991211

> <r_i_glide_einternal>
4.63670444488525

> <i_i_glide_confnum>
74

> <i_i_glide_posenum>
285

> <r_i_glide_eff_state_penalty>
0

> <r_glide_shape_similarity>
0.878027200698853

> <s_m_subgroup_title>
glide-dock_SP_redock_1080_lib1

> <s_m_subgroupid>
glide-dock_SP_redock_1080_lib1

> <b_m_subgroup_collapsed>
0

$$$$
