66
                    3D
 Schrodinger Suite 2021-2.
 43 46  0  0  1  0            999 V2000
    4.1188  -49.4592    6.3036 O   0  0  0  0  0  0
    3.1373  -48.7053    6.4778 C   0  0  0  0  0  0
    3.2594  -47.4952    6.7803 O   0  5  0  0  0  0
    1.7626  -49.2294    6.3218 C   0  0  0  0  0  0
    1.5415  -50.9152    6.7119 S   0  0  0  0  0  0
   -0.2031  -50.7857    6.4632 C   0  0  0  0  0  0
   -1.1948  -51.7777    6.6300 C   0  0  0  0  0  0
   -2.5519  -51.4729    6.3849 C   0  0  0  0  0  0
   -2.9204  -50.1825    5.9596 C   0  0  0  0  0  0
   -1.9268  -49.2057    5.7712 C   0  0  0  0  0  0
   -0.5537  -49.4674    6.0354 C   0  0  0  0  0  0
    0.5911  -48.5940    5.9527 C   0  0  0  0  0  0
    0.4353  -47.1912    5.4984 C   0  0  0  0  0  0
    0.0564  -46.2313    6.6208 C   0  0  0  0  0  0
   -1.3174  -46.2913    7.3638 C   0  0  0  0  0  0
   -2.4901  -45.6413    6.7951 O   0  0  0  0  0  0
   -3.6744  -45.6655    7.5559 C   0  0  0  0  0  0
   -6.0913  -45.7336    9.1533 C   0  0  0  0  0  0
   -4.9521  -46.4697    9.5250 C   0  0  0  0  0  0
   -3.7733  -46.4265    8.7512 C   0  0  0  0  0  0
   -0.7596  -53.3711    7.1555 Cl  0  0  0  0  0  0
   -3.3113  -52.2310    6.5177 H   0  0  0  0  0  0
   -3.9577  -49.9468    5.7627 H   0  0  0  0  0  0
   -2.2311  -48.2252    5.4337 H   0  0  0  0  0  0
    1.3564  -46.8514    5.0221 H   0  0  0  0  0  0
   -0.3215  -47.1340    4.7163 H   0  0  0  0  0  0
    0.8796  -46.1689    7.3344 H   0  0  0  0  0  0
    0.0654  -45.4012    5.9904 H   0  0  0  0  0  0
   -1.5468  -47.3366    7.5455 H   0  0  0  0  0  0
   -1.1493  -45.8297    8.3393 H   0  0  0  0  0  0
   -2.9549  -47.0241    9.1184 H   0  0  0  0  0  0
   -6.0854  -45.0078    7.9416 C   0  0  0  0  0  0
   -4.8697  -44.9677    7.1529 C   0  0  0  0  0  0
   -4.8953  -44.2059    5.9532 C   0  0  0  0  0  0
   -6.1111  -43.6399    5.4901 C   0  0  0  0  0  0
   -7.3255  -43.8081    6.2088 C   0  0  0  0  0  0
   -7.3290  -44.4809    7.4502 C   0  0  0  0  0  0
   -4.0052  -44.1091    5.3473 H   0  0  0  0  0  0
   -6.1188  -43.1026    4.5532 H   0  0  0  0  0  0
   -8.2723  -43.4327    5.8238 H   0  0  0  0  0  0
   -8.3318  -44.6183    7.9140 H   0  0  0  0  0  0
   -4.9845  -47.1237   10.3747 H   0  0  0  0  0  0
   -6.9916  -45.8054    9.7450 H   0  0  0  0  0  0
  1  2  2  0  0  0
  2  3  1  0  0  0
  2  4  1  0  0  0
  4  5  1  0  0  0
  4 12  2  0  0  0
  5  6  1  0  0  0
  6  7  1  0  0  0
  6 11  2  0  0  0
  7  8  2  0  0  0
  7 21  1  0  0  0
  8  9  1  0  0  0
  8 22  1  0  0  0
  9 10  2  0  0  0
  9 23  1  0  0  0
 10 11  1  0  0  0
 10 24  1  0  0  0
 11 12  1  0  0  0
 12 13  1  0  0  0
 13 25  1  0  0  0
 13 26  1  0  0  0
 13 14  1  0  0  0
 14 15  1  0  0  0
 14 27  1  0  0  0
 14 28  1  0  0  0
 15 16  1  0  0  0
 15 29  1  0  0  0
 15 30  1  0  0  0
 16 17  1  0  0  0
 17 20  2  0  0  0
 17 33  1  0  0  0
 18 19  2  0  0  0
 18 32  1  0  0  0
 18 43  1  0  0  0
 19 20  1  0  0  0
 19 42  1  0  0  0
 20 31  1  0  0  0
 32 33  2  0  0  0
 32 37  1  0  0  0
 33 34  1  0  0  0
 34 35  2  0  0  0
 34 38  1  0  0  0
 35 36  1  0  0  0
 35 39  1  0  0  0
 36 37  2  0  0  0
 36 40  1  0  0  0
 37 41  1  0  0  0
M  CHG  1   3  -1
M  END
> <s_m_entry_id>
73

> <s_m_entry_name>
MCL1_66.1

> <r_m_Molecular_weight>
395.88802

> <s_m_Source_Path>
C:\Users\yujiethinkpad\Desktop\05A\MCL1\original

> <s_m_Source_File>
MCL1_66.sdf

> <r_user_dG.exp>
-8.43167143836328

> <s_fepmapper_entryid>
15

> <i_fepmapper_bias>
0

> <i_fepmapper_affinity>
1

> <r_fepmapper_exp_dG>
-8.43167143836

> <i_fepmapper_unit>
1

> <i_m_Source_File_Index>
1

> <s_m_job_name>
glide-dock_SP_redock_1080

> <s_i_glide_gridfile>
glide-grid_MCL1

> <i_i_glide_lignum>
7

> <i_i_glide_rotatable_bonds>
6

> <r_i_docking_score>
-9.01085179328162

> <r_i_glide_ligand_efficiency>
-0.333735251603023

> <r_i_glide_ligand_efficiency_sa>
-1.00120575370913

> <r_i_glide_ligand_efficiency_ln>
-2.0975777419739

> <r_i_glide_gscore>
-9.01085179328162

> <r_i_glide_lipo>
-5.68031819262674

> <r_i_glide_hbond>
-0.2

> <r_i_glide_metal>
0

> <r_i_glide_rewards>
-1.60991359090909

> <r_i_glide_evdw>
-32.5802345275879

> <r_i_glide_ecoul>
-2.44490337371826

> <r_i_glide_erotb>
0.499214537276342

> <r_i_glide_esite>
-0.024087314584994

> <r_i_glide_emodel>
-44.3193429450355

> <r_i_glide_energy>
-35.0251379013062

> <r_i_glide_einternal>
5.22086906433105

> <i_i_glide_confnum>
21

> <i_i_glide_posenum>
247

> <r_i_glide_eff_state_penalty>
0

> <r_glide_shape_similarity>
0.877637088298798

> <s_m_subgroup_title>
glide-dock_SP_redock_1080_lib1

> <s_m_subgroupid>
glide-dock_SP_redock_1080_lib1

> <b_m_subgroup_collapsed>
0

$$$$
