ejm_47
                    3D
 Schrodinger Suite 2021-2.
 39 41  0  0  1  0            999 V2000
   -1.9126   21.5510  -27.3856 C   0  0  0  0  0  0
   -1.2729   22.4413  -28.2466 C   0  0  0  0  0  0
   -1.9568   23.0154  -29.3137 C   0  0  0  0  0  0
   -3.3076   22.6806  -29.5252 C   0  0  0  0  0  0
   -3.9432   21.7942  -28.6345 C   0  0  0  0  0  0
   -3.2438   21.2228  -27.5799 C   0  0  0  0  0  0
   -5.6247   21.4482  -28.8272 Cl  0  0  0  0  0  0
   -4.1012   23.1837  -30.6663 C   0  0  0  0  0  0
   -4.4271   22.3836  -31.5491 O   0  0  0  0  0  0
   -4.4757   24.4742  -30.6727 N   0  0  0  0  0  0
   -5.2721   25.1291  -31.6161 C   0  0  0  0  0  0
   -5.9130   24.5210  -32.7164 C   0  0  0  0  0  0
   -6.7627   25.2942  -33.5059 C   0  0  0  0  0  0
   -6.9364   26.5887  -33.2427 N   0  0  0  0  0  0
   -6.3458   27.2122  -32.2223 C   0  0  0  0  0  0
   -5.5150   26.4796  -31.3701 C   0  0  0  0  0  0
   -6.6629   28.5504  -31.9631 N   0  0  0  0  0  0
   -5.8881   29.4643  -31.3211 C   0  0  0  0  0  0
   -4.7744   29.2088  -30.8937 O   0  0  0  0  0  0
   -1.1245   24.1655  -30.3148 Cl  0  0  0  0  0  0
   -1.3696   21.1124  -26.5607 H   0  0  0  0  0  0
   -0.2341   22.6925  -28.0890 H   0  0  0  0  0  0
   -3.7310   20.5264  -26.9128 H   0  0  0  0  0  0
   -4.1746   25.0909  -29.9317 H   0  0  0  0  0  0
   -5.7404   23.4767  -32.9317 H   0  0  0  0  0  0
   -7.2855   24.8447  -34.3373 H   0  0  0  0  0  0
   -5.0603   26.9632  -30.5181 H   0  0  0  0  0  0
   -7.5509   28.9273  -32.2647 H   0  0  0  0  0  0
   -6.4610   30.8470  -31.1294 C   0  0  0  0  0  0
   -5.9629   31.5115  -29.8410 C   0  0  0  0  0  0
   -4.8552   32.1762  -30.6661 C   0  0  0  0  0  0
   -5.6940   31.9117  -31.9215 C   0  0  0  0  0  0
   -6.6937   32.2520  -29.4339 H   0  0  0  0  0  0
   -5.6018   30.8024  -29.0583 H   0  0  0  0  0  0
   -4.6845   33.2549  -30.4362 H   0  0  0  0  0  0
   -3.9056   31.5876  -30.6564 H   0  0  0  0  0  0
   -6.3364   32.7836  -32.1959 H   0  0  0  0  0  0
   -5.1188   31.5212  -32.7946 H   0  0  0  0  0  0
   -7.5420   30.8965  -31.2596 H   0  0  0  0  0  0
  1  2  1  0  0  0
  1  6  2  0  0  0
  1 21  1  0  0  0
  2  3  2  0  0  0
  2 22  1  0  0  0
  3  4  1  0  0  0
  3 20  1  0  0  0
  4  5  2  0  0  0
  4  8  1  0  0  0
  5  6  1  0  0  0
  5  7  1  0  0  0
  6 23  1  0  0  0
  8  9  2  0  0  0
  8 10  1  0  0  0
 10 11  1  0  0  0
 10 24  1  0  0  0
 11 12  1  0  0  0
 11 16  2  0  0  0
 12 13  2  0  0  0
 12 25  1  0  0  0
 13 14  1  0  0  0
 13 26  1  0  0  0
 14 15  2  0  0  0
 15 16  1  0  0  0
 15 17  1  0  0  0
 16 27  1  0  0  0
 17 18  1  0  0  0
 17 28  1  0  0  0
 18 19  2  0  0  0
 18 29  1  0  0  0
 29 30  1  0  0  0
 29 32  1  0  0  0
 29 39  1  0  0  0
 30 31  1  0  0  0
 30 33  1  0  0  0
 30 34  1  0  0  0
 31 32  1  0  0  0
 31 35  1  0  0  0
 31 36  1  0  0  0
 32 37  1  0  0  0
 32 38  1  0  0  0
M  END
> <s_m_entry_id>
715

> <s_m_entry_name>
Tyk2_ejm_47.1

> <r_user_dG.exp>
-9.7

> <r_m_Molecular_weight>
364.234

> <s_m_Source_Path>
C:\Users\yujiethinkpad\Desktop\05A\Tyk2

> <s_m_Source_File>
Tyk2_ejm_47.sdf

> <i_m_Source_File_Index>
1

> <s_m_job_name>
align_ligands_0000

> <i_phase_Input_Structure_Number>
14

> <i_phase_Structure_Number>
14

> <r_phase_Similarity_to_Reference>
0.93100353221783

> <i_phase_Reference_Structure>
1

> <s_phase_Alignment_Method>
snapped core

> <s_phase_Alignment_Reason>


> <s_phase_Core_SMARTS>
a1aaaaa1A(=A)Aa2aaaaa2

> <s_f3d_frozen_atoms>
5 6 1 2 3 4 8 9 10 11 12 13 14 15 16 7 23 21 22 20 9 24 25 26 27

> <s_fepmapper_entryid>
14

> <i_fepmapper_bias>
0

> <i_fepmapper_affinity>
1

> <r_fepmapper_exp_dG>
-9.7

> <i_fepmapper_unit>
1

> <s_m_subgroup_title>
align_ligands_0000

> <s_m_subgroupid>
align_ligands_0000

> <b_m_subgroup_collapsed>
0

$$$$
