40
                    3D
 Schrodinger Suite 2021-2.
 49 52  0  0  1  0            999 V2000
    4.1784  -49.4639    6.2203 O   0  0  0  0  0  0
    3.2494  -48.6379    6.3898 C   0  0  0  0  0  0
    3.5057  -47.4203    6.5722 O   0  5  0  0  0  0
    1.8694  -49.1879    6.3561 C   0  0  0  0  0  0
   -0.1751  -50.7678    6.4871 C   0  0  0  0  0  0
   -1.1857  -51.7207    6.5942 C   0  0  0  0  0  0
   -2.5063  -51.3885    6.3255 C   0  0  0  0  0  0
   -2.8117  -50.0805    5.9266 C   0  0  0  0  0  0
   -1.8118  -49.1247    5.7993 C   0  0  0  0  0  0
   -0.4872  -49.4555    6.0836 C   0  0  0  0  0  0
    0.6424  -48.5710    6.0066 C   0  0  0  0  0  0
    0.5308  -47.1337    5.6114 C   0  0  0  0  0  0
    0.4854  -46.1552    6.7424 C   0  0  0  0  0  0
   -0.7882  -46.0224    7.5175 C   0  0  0  0  0  0
   -1.8227  -45.6254    6.6920 O   0  0  0  0  0  0
   -3.1083  -45.4602    7.1320 C   0  0  0  0  0  0
   -3.9866  -44.7164    6.3549 C   0  0  0  0  0  0
   -5.3052  -44.5292    6.7686 C   0  0  0  0  0  0
   -5.7337  -45.0786    7.9666 C   0  0  0  0  0  0
   -4.8346  -45.8169    8.7381 C   0  0  0  0  0  0
   -3.5177  -46.0130    8.3257 C   0  0  0  0  0  0
   -0.9512  -52.7271    6.9087 H   0  0  0  0  0  0
   -3.2831  -52.1369    6.4140 H   0  0  0  0  0  0
   -3.8291  -49.8094    5.6808 H   0  0  0  0  0  0
   -2.0757  -48.1176    5.5110 H   0  0  0  0  0  0
    1.4265  -46.8645    5.0504 H   0  0  0  0  0  0
   -0.2654  -46.9501    4.8621 H   0  0  0  0  0  0
    1.3171  -46.3423    7.4139 H   0  0  0  0  0  0
    0.6981  -45.1868    6.3112 H   0  0  0  0  0  0
   -1.0207  -46.9972    7.9509 H   0  0  0  0  0  0
   -0.6536  -45.2970    8.3215 H   0  0  0  0  0  0
   -3.6627  -44.2605    5.4363 H   0  0  0  0  0  0
   -2.8386  -46.5606    8.9469 H   0  0  0  0  0  0
    1.5033  -50.7915    6.7395 N   0  0  0  0  0  0
    2.2196  -51.4312    7.0652 H   0  0  0  0  0  0
   -5.1817  -46.2311    9.6676 H   0  0  0  0  0  0
   -6.7575  -44.9704    8.2956 H   0  0  0  0  0  0
   -6.1150  -43.7921    5.9866 O   0  0  0  0  0  0
   -7.5976  -45.8031    2.6894 C   0  0  0  0  0  0
   -6.2889  -45.2630    2.6133 C   0  0  0  0  0  0
   -5.7611  -44.5562    3.7063 C   0  0  0  0  0  0
   -6.5328  -44.4616    4.8943 C   0  0  0  0  0  0
   -7.8288  -44.9694    4.9712 C   0  0  0  0  0  0
   -8.3781  -45.6050    3.8504 C   0  0  0  0  0  0
   -8.0270  -46.3492    1.8627 H   0  0  0  0  0  0
   -5.6942  -45.3627    1.7205 H   0  0  0  0  0  0
   -4.7825  -44.1099    3.6290 H   0  0  0  0  0  0
   -8.3965  -44.8448    5.8807 H   0  0  0  0  0  0
   -9.3856  -45.9876    3.9159 H   0  0  0  0  0  0
  1  2  2  0  0  0
  2  3  1  0  0  0
  2  4  1  0  0  0
  4 11  2  0  0  0
  4 34  1  0  0  0
  5  6  1  0  0  0
  5 10  2  0  0  0
  5 34  1  0  0  0
  6  7  2  0  0  0
  6 22  1  0  0  0
  7  8  1  0  0  0
  7 23  1  0  0  0
  8  9  2  0  0  0
  8 24  1  0  0  0
  9 10  1  0  0  0
  9 25  1  0  0  0
 10 11  1  0  0  0
 11 12  1  0  0  0
 12 26  1  0  0  0
 12 27  1  0  0  0
 12 13  1  0  0  0
 13 14  1  0  0  0
 13 28  1  0  0  0
 13 29  1  0  0  0
 14 15  1  0  0  0
 14 30  1  0  0  0
 14 31  1  0  0  0
 15 16  1  0  0  0
 16 17  1  0  0  0
 16 21  2  0  0  0
 17 18  2  0  0  0
 17 32  1  0  0  0
 18 19  1  0  0  0
 18 38  1  0  0  0
 19 20  2  0  0  0
 19 37  1  0  0  0
 20 21  1  0  0  0
 20 36  1  0  0  0
 21 33  1  0  0  0
 34 35  1  0  0  0
 38 42  1  0  0  0
 39 40  2  0  0  0
 39 44  1  0  0  0
 39 45  1  0  0  0
 40 41  1  0  0  0
 40 46  1  0  0  0
 41 42  2  0  0  0
 41 47  1  0  0  0
 42 43  1  0  0  0
 43 44  2  0  0  0
 43 48  1  0  0  0
 44 49  1  0  0  0
M  CHG  1   3  -1
M  END
> <s_m_entry_id>
247

> <s_m_entry_name>
MCL1_40.1

> <r_m_Molecular_weight>
386.4313

> <s_m_Source_Path>
C:\Users\yujiethinkpad\Desktop\05A\MCL1\original

> <s_m_Source_File>
MCL1_40.sdf

> <r_user_dG.exp>
-7.25302544244784

> <s_fepmapper_entryid>
23

> <i_fepmapper_bias>
0

> <i_fepmapper_affinity>
1

> <r_fepmapper_exp_dG>
-7.25302544245

> <i_fepmapper_unit>
1

> <i_m_Source_File_Index>
1

> <s_m_job_name>
align_ligands_2

> <s_i_glide_gridfile>
glide-grid_MCL1

> <i_i_glide_lignum>
24

> <i_i_glide_rotatable_bonds>
8

> <r_i_docking_score>
-8.83906664444349

> <r_i_glide_ligand_efficiency>
-0.304795401532534

> <r_i_glide_ligand_efficiency_sa>
-0.936428039469001

> <r_i_glide_ligand_efficiency_ln>
-2.02392212218673

> <r_i_glide_gscore>
-8.83906664444349

> <r_i_glide_lipo>
-6.15667898560114

> <r_i_glide_hbond>
-0.2

> <r_i_glide_metal>
0

> <r_i_glide_rewards>
-1.66445175611573

> <r_i_glide_evdw>
-28.286657333374

> <r_i_glide_ecoul>
-2.04045128822327

> <r_i_glide_erotb>
0.912416869947118

> <r_i_glide_esite>
-0.00995221277154347

> <r_i_glide_emodel>
-31.3353914024014

> <r_i_glide_energy>
-30.3271086215973

> <r_i_glide_einternal>
9.27027606964111

> <i_i_glide_confnum>
39

> <i_i_glide_posenum>
25

> <r_i_glide_eff_state_penalty>
0

> <r_glide_shape_similarity>
0.763691306114197

> <i_phase_Input_Structure_Number>
12

> <i_phase_Structure_Number>
12

> <r_phase_Similarity_to_Reference>
0.760571203068721

> <i_phase_Reference_Structure>
1

> <s_phase_Alignment_Method>
snapped core

> <s_phase_Alignment_Reason>


> <s_phase_Core_SMARTS>
a1aaaaa1AAAAa(aa2)a(a23)aaaa3

> <s_f3d_frozen_atoms>
21 20 19 18 17 16 15 14 13 12 11 4 34 10 5 9 8 7 6 33 36 37 32 30 31 28 29 26 27 35 25 24 23 22

> <s_m_subgroup_title>
align_ligands_2

> <s_m_subgroupid>
align_ligands_2

> <b_m_subgroup_collapsed>
0

$$$$
