1h1q
                    3D
 Schrodinger Suite 2021-2.
 45 48  0  0  1  0            999 V2000
    1.2159   29.0064    6.7729 C   0  0  0  0  0  0
   -1.7306   31.7946    7.9741 C   0  0  0  0  0  0
   -0.6891   26.3786    9.1646 C   0  0  0  0  0  0
   -1.5994   25.7223   10.2090 C   0  0  0  0  0  0
   -2.0680   24.3040    9.8653 C   0  0  0  0  0  0
   -1.1559   23.1926   10.3723 C   0  0  0  0  0  0
   -0.8449   23.3544   11.8558 C   0  0  0  0  0  0
   -0.2091   24.7145   12.1145 C   0  0  0  0  0  0
   -1.1067   25.8571   11.6574 C   0  0  0  0  0  0
    4.7498   25.7589    5.7703 C   0  0  0  0  0  0
    4.7641   25.1807    7.0412 C   0  0  0  0  0  0
    3.9760   25.7361    8.0503 C   0  0  0  0  0  0
    3.1968   26.8658    7.8089 C   0  0  0  0  0  0
    0.5140   28.1096    7.4533 N   0  0  0  0  0  0
   -0.5724   28.5160    8.0987 C   0  0  0  0  0  0
   -1.2771   27.6412    8.8758 O   0  0  0  0  0  0
   -0.9411   29.8365    7.9767 C   0  0  0  0  0  0
   -1.9931   30.5789    8.4146 N   0  0  0  0  0  0
   -0.5602   32.0067    7.3944 N   0  0  0  0  0  0
   -0.0922   30.7215    7.2648 C   0  0  0  0  0  0
    0.9993   30.3120    6.6093 N   0  0  0  0  0  0
    2.3620   28.5416    6.2440 N   0  0  0  0  0  0
    3.1575   27.4315    6.5320 C   0  0  0  0  0  0
    3.9531   26.8819    5.5207 C   0  0  0  0  0  0
   -2.4226   32.5931    8.1950 H   0  0  0  0  0  0
    0.3181   26.4971    9.5603 H   0  0  0  0  0  0
   -0.6205   25.7831    8.2572 H   0  0  0  0  0  0
   -2.5237   26.3047   10.1845 H   0  0  0  0  0  0
   -2.2296   24.1997    8.7934 H   0  0  0  0  0  0
   -3.0479   24.1635   10.3198 H   0  0  0  0  0  0
   -0.2298   23.1835    9.7983 H   0  0  0  0  0  0
   -1.6456   22.2320   10.2023 H   0  0  0  0  0  0
   -0.1785   22.5592   12.1846 H   0  0  0  0  0  0
   -1.7591   23.2543   12.4390 H   0  0  0  0  0  0
    0.7561   24.7770   11.6157 H   0  0  0  0  0  0
   -0.0214   24.8218   13.1774 H   0  0  0  0  0  0
   -1.9799   25.8714   12.3144 H   0  0  0  0  0  0
   -0.6115   26.8167   11.8143 H   0  0  0  0  0  0
    5.3655   25.3515    4.9820 H   0  0  0  0  0  0
    5.3819   24.3189    7.2401 H   0  0  0  0  0  0
    3.9557   25.2701    9.0099 H   0  0  0  0  0  0
    2.6003   27.2622    8.6057 H   0  0  0  0  0  0
    2.8771   29.2213    5.6955 H   0  0  0  0  0  0
    3.9549   27.3256    4.5369 H   0  0  0  0  0  0
   -2.8071   30.2957    8.9360 H   0  0  0  0  0  0
  1 14  1  0  0  0
  1 21  2  0  0  0
  1 22  1  0  0  0
  2 18  1  0  0  0
  2 19  2  0  0  0
  2 25  1  0  0  0
  3  4  1  0  0  0
  3 16  1  0  0  0
  3 26  1  0  0  0
  3 27  1  0  0  0
  4  5  1  0  0  0
  4  9  1  0  0  0
  4 28  1  0  0  0
  5  6  1  0  0  0
  5 29  1  0  0  0
  5 30  1  0  0  0
  6  7  1  0  0  0
  6 31  1  0  0  0
  6 32  1  0  0  0
  7  8  1  0  0  0
  7 33  1  0  0  0
  7 34  1  0  0  0
  8  9  1  0  0  0
  8 35  1  0  0  0
  8 36  1  0  0  0
  9 37  1  0  0  0
  9 38  1  0  0  0
 10 11  2  0  0  0
 10 24  1  0  0  0
 10 39  1  0  0  0
 11 12  1  0  0  0
 11 40  1  0  0  0
 12 13  2  0  0  0
 12 41  1  0  0  0
 13 23  1  0  0  0
 13 42  1  0  0  0
 14 15  2  0  0  0
 15 16  1  0  0  0
 15 17  1  0  0  0
 17 18  1  0  0  0
 17 20  2  0  0  0
 18 45  1  0  0  0
 19 20  1  0  0  0
 20 21  1  0  0  0
 22 23  1  0  0  0
 22 43  1  0  0  0
 23 24  2  0  0  0
 24 44  1  0  0  0
M  END
> <i_m_stars>
0

> <s_m_entry_id>
1767

> <s_m_entry_name>
Structure1476

> <s_m_Source_Path>
C:\Users\yujiethinkpad\Desktop\05A\CDK2\ref

> <s_m_Source_File>
1h1q_0354.maegz

> <i_m_Source_File_Index>
1

> <s_i_glide_gridfile>
glide-grid_CDK2

> <s_lp_Force_Field>
S-OPLS

> <s_lp_Variant>
Structure1476-2

> <r_i_docking_score>
-4.03339870332845

> <r_i_glide_ecoul>
-2.75511407852173

> <r_i_glide_einternal>
6.04493522644043

> <r_i_glide_emodel>
-35.1395498191456

> <r_i_glide_energy>
-29.6266446113586

> <r_i_glide_erotb>
0.894671494312316

> <r_i_glide_esite>
-0.0343047055406904

> <r_i_glide_evdw>
-26.8715305328369

> <r_i_glide_gscore>
-6.33699870332845

> <r_i_glide_hbond>
-0.242162373351672

> <r_i_glide_ligand_efficiency>
-0.168058279305352

> <r_i_glide_ligand_efficiency_ln>
-0.96537739031298

> <r_i_glide_ligand_efficiency_sa>
-0.484763961715957

> <r_i_glide_lipo>
-2.05383236674982

> <r_i_glide_metal>
0

> <r_i_glide_rewards>
-3.14452711357848

> <r_lp_Energy>
24.362402

> <i_i_glide_confnum>
274

> <i_i_glide_lignum>
2

> <i_i_glide_posenum>
59

> <i_i_glide_rotatable_bonds>
5

> <i_lp_mmshare_version>
54117

> <b_lp_Chiralities_Consistent>
1

> <r_lp_tautomer_probability>
0.00886694980142663

> <r_i_glide_eff_state_penalty>
2.3036

> <s_pdb_PDB_TITLE>
STRUCTURE OF HUMAN THR160-PHOSPHO CDK2/CYCLIN A COMPLEXED WITH THE INHIBITOR NU6094

> <s_pdb_PDB_ID>
1H1Q

> <r_pdb_PDB_CRYST1_a>
73.99

> <r_pdb_PDB_CRYST1_b>
134.73

> <r_pdb_PDB_CRYST1_c>
148.12

> <r_pdb_PDB_CRYST1_alpha>
90

> <r_pdb_PDB_CRYST1_beta>
90

> <r_pdb_PDB_CRYST1_gamma>
90

> <s_pdb_PDB_CRYST1_Space_Group>
P 21 21 21

> <i_pdb_PDB_CRYST1_z>
8

> <s_pdb_PDB_CLASSIFICATION>
TRANSFERASE

> <s_pdb_PDB_DEPOSITION_DATE>
21-JUL-02

> <s_pdb_PDB_format_version>
3.15

> <r_pdb_PDB_R>
0.238

> <r_pdb_PDB_Rfree>
0.332

> <r_pdb_PDB_RESOLUTION>
2.5

> <s_pdb_PDB_EXPDTA>
X-RAY DIFFRACTION

> <r_pdb_PDB_EXPDTA_TEMPERATURE>
100

> <r_pdb_PDB_EXPDTA_PH>
7

> <s_pdb_PDB_REMARK_350_Biomolecule_1_Transform_1_Chains>
A, B

> <s_pdb_PDB_REMARK_350_Biomolecule_1_Transform_1_Matrix_1>
1.000000 0.000000 0.000000   0.000000;0.000000 1.000000 0.000000   0.000000;0.000000 0.000000 1.000000   0.000000

> <s_pdb_PDB_REMARK_350_Biomolecule_2_Transform_1_Chains>
C, D

> <s_pdb_PDB_REMARK_350_Biomolecule_2_Transform_1_Matrix_1>
1.000000 0.000000 0.000000   0.000000;0.000000 1.000000 0.000000   0.000000;0.000000 0.000000 1.000000   0.000000

> <s_epik_input>
W2NIXTFbY0hdW2NIXVtjSF1bY0hdYzFbTkhdYyhuYyhjMjMpW25IXVtjSF1uMyluYzJPW0NIMl1bQ0hdNFtDSDJdW0NIMl1bQ0gyXVtDSDJdW0NIMl00

> <s_epik_cmdline>
J2VwaWtfcHl0aG9uJywgJy1waCcsICc3LjAnLCAnLXRuJywgJzgnLCAnLW1hJywgJzUwMCcsICctaW1hZScsICc8aW5maWxlLm1hZT4nLCAnLW9tYWUnLCAnPG91dGZpbGUubWFlPic=

> <r_epik_Ionization_Penalty>
  0.0821

> <r_epik_Ionization_Penalty_Charging>
  0.0541

> <r_epik_Ionization_Penalty_Neutral>
  0.0280

> <r_epik_State_Penalty>
  2.3036

> <r_epik_Charging_Adjusted_Penalty>
2.35773651288673

> <i_epik_Tot_Q>
0

> <i_epik_Tot_abs_Q>
0

> <s_ppw_entry_id_backup>
1457

> <b_ppw_prepared>
1

> <s_ppw_prepared_with_version>
2021-2

> <b_ppw_assigned_bond_orders>
1

> <b_ppw_added_hydrogens>
1

> <b_ppw_treated_metals>
1

> <b_ppw_created_disulfur>
1

> <s_ppw_het_states>
eJztVTFyGzEM/MrN1bZC8AgClLtUbjMpMyk0jqsoUgqlyHj8dx/Ak5Y8F2kUV1KFW5FcgLs7fBlp3A7f5p+WNN0N4fvdYGVCySgzSkGpKMul5ICSUEaUYGOwMdgYbAw2BhuDLYMtgy2DLYMtgy2DLTub1ctN1D1xGawC805qAWuRcGOVvAcCzmADUrPFARuIcL/1ajuAm0PFVzRb1IECoPiWcAGs7M4wDer1xxbIaIzrcJiWfRbTJkKmen0EsapOEZJ1wy0AOmXv1DSKHYDW7TbrCoKgVReCll0fmc+zRBMzbALFuYeX0VqcnR42VML872hE/h3ZtLTv6fL9ajuLykw3fj3tTs/D7+fDbn/6u/UTh59Pu/2nX8f9w/B4//l4+DE8Hf8cTtuBHoYv85LRbXRL1LUSFTsgrAJ0S9RHJipupjDlJlFxwzHVAFH9THY150DFTSpEc6DuyXZyaX7v02Wn/ztdcxtjvDxbGVbOsHKGlQVWFlhZYGWBlQVWFlhZEBwBm4BNwKZgU7Ap2BRsCjYFm4JNwaZgU7CV0IQsuyEUllkAWGYBGkO425XXQMIZ7iFptjig8JB4HoTWAA4Vt500W9x2AtuJB0QQEEnrMzwPguEqUNCY+HCCacVnMW0iZKrXRxCr6hQhWTfcAqBT9U41Y8t0vjGClHUFQdCqC0HLvo9ynuXds6Whf7Y09c+WytWfrVuirpKo2AFpFaBboj4yUe2z5YnCs6XcP1seqP/ybL2+AdFA5Lw=

> <i_f3d_flags>
0

> <s_m_job_name>
align_ligands_1

> <r_glide_shape_similarity>
0.938546419143677

> <i_phase_Input_Structure_Number>
16

> <i_phase_Structure_Number>
16

> <i_phase_Reference_Structure>
16

> <s_phase_Core_SMARTS>


> <r_phase_Similarity_to_Reference>
1

> <s_phase_Alignment_Method>


> <s_phase_Alignment_Reason>


> <r_m_RMS_In_Place_1476>
0

> <r_m_RMSD_1466>
0.228811014740381

> <r_m_RMS_In_Place_1636>
0.354144542700905

> <s_m_subgroup_title>
align_ligands_1

> <s_m_subgroupid>
align_ligands_1

> <b_m_subgroup_collapsed>
0

$$$$
