23467
                    3D
 Schrodinger Suite 2021-2.
 31 32  0  0  1  0            999 V2000
   39.4189    7.4432   16.3237 C   0  0  0  0  0  0
   39.4474    8.7817   15.9894 O   0  0  0  0  0  0
   40.6494    9.4167   16.2267 C   0  0  0  0  0  0
   41.7451    8.6765   16.7835 C   0  0  0  0  0  0
   42.9909    9.3169   17.0357 C   0  0  0  0  0  0
   43.1286   10.7001   16.7209 C   0  0  0  0  0  0
   42.0419   11.4634   16.1629 C   0  0  0  0  0  0
   42.3161   12.9026   15.8577 C   0  0  0  0  0  0
   43.4366   13.7932   16.7870 S   0  0  0  0  0  0
   43.2684   15.2458   15.9117 C   0  0  0  0  0  0
   44.0177   16.3881   16.2628 C   0  0  0  0  0  0
   44.6171   16.3707   17.3398 O   0  0  0  0  0  0
   44.0683   17.3629   15.5186 O   0  5  0  0  0  0
   42.3244   15.0639   14.8669 C   0  0  0  0  0  0
   41.9222   16.0404   13.9182 O   0  0  0  0  0  0
   40.7490   16.7889   14.2354 C   0  0  0  0  0  0
   40.3013   17.5125   12.9696 C   0  0  0  0  0  0
   39.2214   18.0911   12.9815 O   0  0  0  0  0  0
   41.0386   17.4906   11.9694 O   0  5  0  0  0  0
   41.7851   13.7467   14.8433 C   0  0  0  0  0  0
   40.4864   13.2193   13.5384 Br  0  0  0  0  0  0
   40.7852   10.8058   15.9152 C   0  0  0  0  0  0
   38.4337    7.0338   16.1006 H   0  0  0  0  0  0
   40.1736    6.9085   15.7469 H   0  0  0  0  0  0
   39.6271    7.3299   17.3876 H   0  0  0  0  0  0
   41.6569    7.6277   17.0227 H   0  0  0  0  0  0
   43.8106    8.7541   17.4572 H   0  0  0  0  0  0
   44.0742   11.1910   16.8982 H   0  0  0  0  0  0
   39.9678   16.1112   14.5800 H   0  0  0  0  0  0
   40.9785   17.5084   15.0213 H   0  0  0  0  0  0
   39.9365   11.3332   15.5046 H   0  0  0  0  0  0
  1  2  1  0  0  0
  1 23  1  0  0  0
  1 24  1  0  0  0
  1 25  1  0  0  0
  2  3  1  0  0  0
  3 22  1  0  0  0
  3  4  2  0  0  0
  4  5  1  0  0  0
  4 26  1  0  0  0
  5  6  2  0  0  0
  5 27  1  0  0  0
  6  7  1  0  0  0
  6 28  1  0  0  0
  7  8  1  0  0  0
  7 22  2  0  0  0
  8 20  2  0  0  0
  8  9  1  0  0  0
  9 10  1  0  0  0
 10 11  1  0  0  0
 10 14  2  0  0  0
 11 12  2  0  0  0
 11 13  1  0  0  0
 14 15  1  0  0  0
 14 20  1  0  0  0
 15 16  1  0  0  0
 16 17  1  0  0  0
 16 29  1  0  0  0
 16 30  1  0  0  0
 17 18  2  0  0  0
 17 19  1  0  0  0
 20 21  1  0  0  0
 22 31  1  0  0  0
M  CHG  2  13  -1  19  -1
M  END
> <i_m_stars>
2

> <s_m_entry_id>
425

> <s_m_entry_name>
PTP1B_23467.1

> <r_user_dG.exp>
-7.34237427296449

> <r_m_Molecular_weight>
385.19723

> <s_m_Source_Path>
C:\Users\yujiethinkpad\Desktop\05A\PTP1B

> <s_m_Source_File>
PTP1B_23467.sdf

> <i_m_Source_File_Index>
1

> <s_m_job_name>
align_ligands_0000

> <i_phase_Input_Structure_Number>
18

> <i_phase_Structure_Number>
18

> <r_phase_Similarity_to_Reference>
0.706362473362281

> <i_phase_Reference_Structure>
1

> <s_phase_Alignment_Method>
snapped core

> <s_phase_Alignment_Reason>


> <s_phase_Core_SMARTS>
a1aaaa1-a2aaaaa2

> <s_f3d_frozen_atoms>
9 10 14 20 8 7 22 3 4 5 6 21 31 26 27 28

> <s_m_subgroup_title>
align_ligands_0000

> <s_m_subgroupid>
align_ligands_0000

> <b_m_subgroup_collapsed>
0

$$$$
