23475
                    3D
 Schrodinger Suite 2021-2.
 42 44  0  0  1  0            999 V2000
   39.2214   18.0911   12.9815 O   0  0  0  0  0  0
   40.3013   17.5125   12.9696 C   0  0  0  0  0  0
   41.0386   17.4906   11.9694 O   0  5  0  0  0  0
   40.7490   16.7889   14.2354 C   0  0  0  0  0  0
   41.9222   16.0404   13.9182 O   0  0  0  0  0  0
   42.3244   15.0639   14.8669 C   0  0  0  0  0  0
   41.7851   13.7467   14.8433 C   0  0  0  0  0  0
   40.4864   13.2193   13.5384 Br  0  0  0  0  0  0
   42.3161   12.9026   15.8577 C   0  0  0  0  0  0
   42.0419   11.4634   16.1629 C   0  0  0  0  0  0
   43.1286   10.7001   16.7209 C   0  0  0  0  0  0
   42.9909    9.3169   17.0357 C   0  0  0  0  0  0
   41.7451    8.6765   16.7835 C   0  0  0  0  0  0
   40.6494    9.4167   16.2267 C   0  0  0  0  0  0
   39.4414    8.7378   16.0033 N   0  0  0  0  0  0
   39.4073    7.3339   15.6463 C   0  0  0  0  0  0
   39.6823    7.1089   14.1585 C   0  0  0  0  0  0
   38.9644    5.7998   13.8403 C   0  0  0  0  0  0
   37.6862    5.8614   14.6783 C   0  0  0  0  0  0
   38.0395    6.6913   15.9219 C   0  0  0  0  0  0
   40.7852   10.8058   15.9152 C   0  0  0  0  0  0
   43.4366   13.7932   16.7870 S   0  0  0  0  0  0
   43.2684   15.2458   15.9117 C   0  0  0  0  0  0
   44.0177   16.3881   16.2628 C   0  0  0  0  0  0
   44.6171   16.3707   17.3398 O   0  0  0  0  0  0
   44.0683   17.3629   15.5186 O   0  5  0  0  0  0
   39.9302   16.1807   14.6241 H   0  0  0  0  0  0
   40.9749   17.5281   15.0043 H   0  0  0  0  0  0
   44.0828   11.1707   16.9083 H   0  0  0  0  0  0
   43.8246    8.7737   17.4558 H   0  0  0  0  0  0
   41.6328    7.6269   17.0137 H   0  0  0  0  0  0
   38.5784    9.1706   16.2990 H   0  0  0  0  0  0
   40.1716    6.8312   16.2388 H   0  0  0  0  0  0
   39.3416    7.9378   13.5381 H   0  0  0  0  0  0
   40.7533    6.9913   13.9937 H   0  0  0  0  0  0
   38.7111    5.7665   12.7807 H   0  0  0  0  0  0
   39.5709    4.9219   14.0629 H   0  0  0  0  0  0
   36.9035    6.3676   14.1133 H   0  0  0  0  0  0
   37.3118    4.8697   14.9321 H   0  0  0  0  0  0
   38.0859    6.0650   16.8129 H   0  0  0  0  0  0
   37.2775    7.4495   16.1023 H   0  0  0  0  0  0
   39.9757   11.3887   15.5039 H   0  0  0  0  0  0
  1  2  2  0  0  0
  2  3  1  0  0  0
  2  4  1  0  0  0
  4  5  1  0  0  0
  4 27  1  0  0  0
  4 28  1  0  0  0
  5  6  1  0  0  0
  6 23  2  0  0  0
  6  7  1  0  0  0
  7  8  1  0  0  0
  7  9  2  0  0  0
  9 10  1  0  0  0
  9 22  1  0  0  0
 10 21  1  0  0  0
 10 11  2  0  0  0
 11 12  1  0  0  0
 11 29  1  0  0  0
 12 13  2  0  0  0
 12 30  1  0  0  0
 13 14  1  0  0  0
 13 31  1  0  0  0
 14 15  1  0  0  0
 14 21  2  0  0  0
 15 16  1  0  0  0
 15 32  1  0  0  0
 16 20  1  0  0  0
 16 17  1  0  0  0
 16 33  1  0  0  0
 17 18  1  0  0  0
 17 34  1  0  0  0
 17 35  1  0  0  0
 18 19  1  0  0  0
 18 36  1  0  0  0
 18 37  1  0  0  0
 19 20  1  0  0  0
 19 38  1  0  0  0
 19 39  1  0  0  0
 20 40  1  0  0  0
 20 41  1  0  0  0
 21 42  1  0  0  0
 22 23  1  0  0  0
 23 24  1  0  0  0
 24 25  2  0  0  0
 24 26  1  0  0  0
M  CHG  2   3  -1  26  -1
M  END
> <i_m_stars>
2

> <s_m_entry_id>
411

> <s_m_entry_name>
PTP1B_23475.1

> <r_user_dG.exp>
-8.71754822596421

> <r_m_Molecular_weight>
438.30492

> <s_m_Source_Path>
C:\Users\yujiethinkpad\Desktop\05A\PTP1B

> <s_m_Source_File>
PTP1B_23475.sdf

> <i_m_Source_File_Index>
1

> <s_m_job_name>
align_ligands_0000

> <i_phase_Input_Structure_Number>
4

> <i_phase_Structure_Number>
4

> <r_phase_Similarity_to_Reference>
0.902376629649529

> <i_phase_Reference_Structure>
1

> <s_phase_Alignment_Method>
snapped core

> <s_phase_Alignment_Reason>


> <s_phase_Core_SMARTS>
a1aaaa1-a2aaaaa2

> <s_f3d_frozen_atoms>
22 23 6 7 9 10 21 14 13 12 11 8 42 31 30 29

> <s_m_subgroup_title>
align_ligands_0000

> <s_m_subgroupid>
align_ligands_0000

> <b_m_subgroup_collapsed>
0

$$$$
