23483
                    3D
 Schrodinger Suite 2021-2.
 57 60  0  0  1  0            999 V2000
   39.2214   18.0911   12.9815 O   0  0  0  0  0  0
   40.3013   17.5125   12.9696 C   0  0  0  0  0  0
   41.0386   17.4906   11.9694 O   0  5  0  0  0  0
   40.7490   16.7889   14.2354 C   0  0  0  0  0  0
   41.9222   16.0404   13.9182 O   0  0  0  0  0  0
   42.3244   15.0639   14.8669 C   0  0  0  0  0  0
   41.7851   13.7467   14.8433 C   0  0  0  0  0  0
   40.4864   13.2193   13.5384 Br  0  0  0  0  0  0
   42.3161   12.9026   15.8577 C   0  0  0  0  0  0
   42.0419   11.4634   16.1629 C   0  0  0  0  0  0
   43.1286   10.7001   16.7209 C   0  0  0  0  0  0
   42.9909    9.3169   17.0357 C   0  0  0  0  0  0
   41.7451    8.6765   16.7835 C   0  0  0  0  0  0
   40.6494    9.4167   16.2267 C   0  0  0  0  0  0
   39.4214    8.7345   15.9688 N   0  0  0  0  0  0
   38.8637    7.5620   15.4168 C   0  0  0  0  0  0
   37.3333    7.6313   15.2956 C   0  0  0  0  0  0
   36.8298    6.2902   14.7063 C   0  0  0  0  0  0
   37.5090    5.9464   13.3491 N   0  0  3  0  0  0
   36.7023    5.8519   12.0881 S   0  0  0  0  0  0
   35.4682    6.6310   12.2738 O   0  0  0  0  0  0
   37.6025    6.1362   10.9599 O   0  0  0  0  0  0
   36.3016    4.1108   12.0224 C   0  0  0  0  0  0
   37.3439    3.1682   11.9204 C   0  0  0  0  0  0
   37.0383    1.7935   11.8868 C   0  0  0  0  0  0
   35.6966    1.3678   11.9570 C   0  0  0  0  0  0
   34.6579    2.3149   12.0621 C   0  0  0  0  0  0
   34.9586    3.6906   12.0979 C   0  0  0  0  0  0
   39.0615    6.0100   13.4098 C   0  0  0  0  0  0
   39.5435    7.3301   14.0419 C   0  0  0  0  0  0
   40.7852   10.8058   15.9152 C   0  0  0  0  0  0
   43.4366   13.7932   16.7870 S   0  0  0  0  0  0
   43.2684   15.2458   15.9117 C   0  0  0  0  0  0
   44.0177   16.3881   16.2628 C   0  0  0  0  0  0
   44.6171   16.3707   17.3398 O   0  0  0  0  0  0
   44.0683   17.3629   15.5186 O   0  5  0  0  0  0
   39.9255   16.1890   14.6287 H   0  0  0  0  0  0
   40.9780   17.5369   14.9944 H   0  0  0  0  0  0
   44.0828   11.1703   16.9093 H   0  0  0  0  0  0
   43.8241    8.7746   17.4579 H   0  0  0  0  0  0
   41.6354    7.6272   17.0164 H   0  0  0  0  0  0
   38.5698    9.1668   16.2972 H   0  0  0  0  0  0
   39.0995    6.7566   16.1123 H   0  0  0  0  0  0
   36.8895    7.8396   16.2691 H   0  0  0  0  0  0
   37.0609    8.4703   14.6554 H   0  0  0  0  0  0
   37.0264    5.4633   15.3888 H   0  0  0  0  0  0
   35.7481    6.3163   14.5751 H   0  0  0  0  0  0
   38.3710    3.4984   11.8678 H   0  0  0  0  0  0
   37.8325    1.0660   11.8065 H   0  0  0  0  0  0
   35.4633    0.3136   11.9293 H   0  0  0  0  0  0
   33.6301    1.9870   12.1136 H   0  0  0  0  0  0
   34.1609    4.4149   12.1743 H   0  0  0  0  0  0
   39.4048    5.1458   13.9784 H   0  0  0  0  0  0
   39.4725    5.8886   12.4076 H   0  0  0  0  0  0
   39.3127    8.1656   13.3811 H   0  0  0  0  0  0
   40.6275    7.3275   14.1558 H   0  0  0  0  0  0
   39.9903   11.4034   15.5066 H   0  0  0  0  0  0
  1  2  2  0  0  0
  2  3  1  0  0  0
  2  4  1  0  0  0
  4  5  1  0  0  0
  4 37  1  0  0  0
  4 38  1  0  0  0
  5  6  1  0  0  0
  6 33  2  0  0  0
  6  7  1  0  0  0
  7  8  1  0  0  0
  7  9  2  0  0  0
  9 10  1  0  0  0
  9 32  1  0  0  0
 10 31  1  0  0  0
 10 11  2  0  0  0
 11 12  1  0  0  0
 11 39  1  0  0  0
 12 13  2  0  0  0
 12 40  1  0  0  0
 13 14  1  0  0  0
 13 41  1  0  0  0
 14 15  1  0  0  0
 14 31  2  0  0  0
 15 16  1  0  0  0
 15 42  1  0  0  0
 16 30  1  0  0  0
 16 17  1  0  0  0
 16 43  1  0  0  0
 17 18  1  0  0  0
 17 44  1  0  0  0
 17 45  1  0  0  0
 18 19  1  0  0  0
 18 46  1  0  0  0
 18 47  1  0  0  0
 19 20  1  0  0  0
 19 29  1  0  0  0
 20 21  2  0  0  0
 20 22  2  0  0  0
 20 23  1  0  0  0
 23 28  1  0  0  0
 23 24  2  0  0  0
 24 25  1  0  0  0
 24 48  1  0  0  0
 25 26  2  0  0  0
 25 49  1  0  0  0
 26 27  1  0  0  0
 26 50  1  0  0  0
 27 28  2  0  0  0
 27 51  1  0  0  0
 28 52  1  0  0  0
 29 30  1  0  0  0
 29 53  1  0  0  0
 29 54  1  0  0  0
 30 55  1  0  0  0
 30 56  1  0  0  0
 31 57  1  0  0  0
 32 33  1  0  0  0
 33 34  1  0  0  0
 34 35  2  0  0  0
 34 36  1  0  0  0
M  CHG  2   3  -1  36  -1
M  END
> <i_m_stars>
2

> <s_m_entry_id>
417

> <s_m_entry_name>
PTP1B_23483.1

> <r_user_dG.exp>
-9.8746881466035

> <r_m_Molecular_weight>
593.48117

> <s_m_Source_Path>
C:\Users\yujiethinkpad\Desktop\05A\PTP1B

> <s_m_Source_File>
PTP1B_23483.sdf

> <i_m_Source_File_Index>
1

> <s_m_job_name>
align_ligands_0000

> <i_phase_Input_Structure_Number>
10

> <i_phase_Structure_Number>
10

> <r_phase_Similarity_to_Reference>
0.742028981242821

> <i_phase_Reference_Structure>
1

> <s_phase_Alignment_Method>
snapped core

> <s_phase_Alignment_Reason>


> <s_phase_Core_SMARTS>
a1aaaa1-a2aa(aaa2)AA3AAAAA3

> <s_f3d_frozen_atoms>
32 33 6 7 9 10 31 14 13 12 11 15 16 17 18 19 29 30 8 57 41 40 39 42 43 44 45 46 47 53 54 55 56

> <s_m_subgroup_title>
align_ligands_0000

> <s_m_subgroupid>
align_ligands_0000

> <b_m_subgroup_collapsed>
0

$$$$
