23484
                    3D
 Schrodinger Suite 2021-2.
 60 63  0  0  1  0            999 V2000
   39.2214   18.0911   12.9815 O   0  0  0  0  0  0
   40.3013   17.5125   12.9696 C   0  0  0  0  0  0
   41.0386   17.4906   11.9694 O   0  5  0  0  0  0
   40.7490   16.7889   14.2354 C   0  0  0  0  0  0
   41.9222   16.0404   13.9182 O   0  0  0  0  0  0
   42.3244   15.0639   14.8669 C   0  0  0  0  0  0
   41.7851   13.7467   14.8433 C   0  0  0  0  0  0
   42.3161   12.9026   15.8577 C   0  0  0  0  0  0
   42.0419   11.4634   16.1629 C   0  0  0  0  0  0
   43.1286   10.7001   16.7209 C   0  0  0  0  0  0
   42.9909    9.3169   17.0357 C   0  0  0  0  0  0
   41.7451    8.6765   16.7835 C   0  0  0  0  0  0
   40.6494    9.4167   16.2267 C   0  0  0  0  0  0
   39.4214    8.7345   15.9688 N   0  0  0  0  0  0
   38.8637    7.5620   15.4168 C   0  0  0  0  0  0
   37.3333    7.6313   15.2956 C   0  0  0  0  0  0
   36.8298    6.2902   14.7063 C   0  0  0  0  0  0
   37.5090    5.9464   13.3491 N   0  0  3  0  0  0
   36.6566    5.0989   12.1197 S   0  0  0  0  0  0
   37.4457    5.2177   10.8860 O   0  0  0  0  0  0
   35.2524    5.5441   12.1485 O   0  0  0  0  0  0
   36.7442    3.3447   12.6919 C   0  0  0  0  0  0
   36.2423    2.4505   11.5752 C   0  0  0  0  0  0
   34.8765    2.1757   11.4586 C   0  0  0  0  0  0
   34.4095    1.3887   10.4067 C   0  0  0  0  0  0
   35.3064    0.8758    9.4709 C   0  0  0  0  0  0
   36.6715    1.1377    9.5873 C   0  0  0  0  0  0
   37.1399    1.9225   10.6407 C   0  0  0  0  0  0
   39.0615    6.0100   13.4098 C   0  0  0  0  0  0
   39.5435    7.3301   14.0419 C   0  0  0  0  0  0
   40.7852   10.8058   15.9152 C   0  0  0  0  0  0
   43.4366   13.7932   16.7870 S   0  0  0  0  0  0
   43.2684   15.2458   15.9117 C   0  0  0  0  0  0
   44.0177   16.3881   16.2628 C   0  0  0  0  0  0
   44.6171   16.3707   17.3398 O   0  0  0  0  0  0
   44.0683   17.3629   15.5186 O   0  5  0  0  0  0
   39.9475   16.1199   14.5487 H   0  0  0  0  0  0
   40.8913   17.5063   15.0463 H   0  0  0  0  0  0
   41.0475   13.4530   14.1110 H   0  0  0  0  0  0
   44.0794   11.1724   16.9210 H   0  0  0  0  0  0
   43.8231    8.7743   17.4593 H   0  0  0  0  0  0
   41.6378    7.6265   17.0143 H   0  0  0  0  0  0
   38.5711    9.1944   16.2610 H   0  0  0  0  0  0
   39.0995    6.7566   16.1123 H   0  0  0  0  0  0
   36.8895    7.8396   16.2691 H   0  0  0  0  0  0
   37.0609    8.4703   14.6554 H   0  0  0  0  0  0
   37.0264    5.4633   15.3888 H   0  0  0  0  0  0
   35.7481    6.3163   14.5751 H   0  0  0  0  0  0
   37.7894    3.1231   12.9075 H   0  0  0  0  0  0
   36.1941    3.2491   13.6277 H   0  0  0  0  0  0
   34.1786    2.5595   12.1889 H   0  0  0  0  0  0
   33.3536    1.1774   10.3207 H   0  0  0  0  0  0
   34.9448    0.2749    8.6496 H   0  0  0  0  0  0
   37.3622    0.7334    8.8621 H   0  0  0  0  0  0
   38.1985    2.1168   10.7311 H   0  0  0  0  0  0
   39.4048    5.1458   13.9784 H   0  0  0  0  0  0
   39.4725    5.8886   12.4076 H   0  0  0  0  0  0
   39.3127    8.1656   13.3811 H   0  0  0  0  0  0
   40.6275    7.3275   14.1558 H   0  0  0  0  0  0
   39.9847   11.3852   15.4910 H   0  0  0  0  0  0
  1  2  2  0  0  0
  2  3  1  0  0  0
  2  4  1  0  0  0
  4  5  1  0  0  0
  4 37  1  0  0  0
  4 38  1  0  0  0
  5  6  1  0  0  0
  6 33  2  0  0  0
  6  7  1  0  0  0
  7  8  2  0  0  0
  7 39  1  0  0  0
  8  9  1  0  0  0
  8 32  1  0  0  0
  9 31  1  0  0  0
  9 10  2  0  0  0
 10 11  1  0  0  0
 10 40  1  0  0  0
 11 12  2  0  0  0
 11 41  1  0  0  0
 12 13  1  0  0  0
 12 42  1  0  0  0
 13 14  1  0  0  0
 13 31  2  0  0  0
 14 15  1  0  0  0
 14 43  1  0  0  0
 15 30  1  0  0  0
 15 16  1  0  0  0
 15 44  1  0  0  0
 16 17  1  0  0  0
 16 45  1  0  0  0
 16 46  1  0  0  0
 17 18  1  0  0  0
 17 47  1  0  0  0
 17 48  1  0  0  0
 18 19  1  0  0  0
 18 29  1  0  0  0
 19 20  2  0  0  0
 19 21  2  0  0  0
 19 22  1  0  0  0
 22 23  1  0  0  0
 22 49  1  0  0  0
 22 50  1  0  0  0
 23 28  1  0  0  0
 23 24  2  0  0  0
 24 25  1  0  0  0
 24 51  1  0  0  0
 25 26  2  0  0  0
 25 52  1  0  0  0
 26 27  1  0  0  0
 26 53  1  0  0  0
 27 28  2  0  0  0
 27 54  1  0  0  0
 28 55  1  0  0  0
 29 30  1  0  0  0
 29 56  1  0  0  0
 29 57  1  0  0  0
 30 58  1  0  0  0
 30 59  1  0  0  0
 31 60  1  0  0  0
 32 33  1  0  0  0
 33 34  1  0  0  0
 34 35  2  0  0  0
 34 36  1  0  0  0
M  CHG  2   3  -1  36  -1
M  END
> <i_m_stars>
2

> <s_m_entry_id>
418

> <s_m_entry_name>
PTP1B_23484.1

> <r_user_dG.exp>
-7.75184064198728

> <r_m_Molecular_weight>
528.60723

> <s_m_Source_Path>
C:\Users\yujiethinkpad\Desktop\05A\PTP1B

> <s_m_Source_File>
PTP1B_23484.sdf

> <i_m_Source_File_Index>
1

> <s_m_job_name>
align_ligands_0000

> <i_phase_Input_Structure_Number>
11

> <i_phase_Structure_Number>
11

> <r_phase_Similarity_to_Reference>
0.699909153916699

> <i_phase_Reference_Structure>
1

> <s_phase_Alignment_Method>
snapped core

> <s_phase_Alignment_Reason>


> <s_phase_Core_SMARTS>
a1aaaa1-a2aa(aaa2)AA3AAAAA3

> <s_f3d_frozen_atoms>
32 33 6 7 8 9 31 13 12 11 10 14 15 16 17 18 29 30 39 60 42 41 40 43 44 45 46 47 48 56 57 58 59

> <s_m_subgroup_title>
align_ligands_0000

> <s_m_subgroupid>
align_ligands_0000

> <b_m_subgroup_collapsed>
0

$$$$
