23486
                    3D
 Schrodinger Suite 2021-2.
 60 63  0  0  1  0            999 V2000
   39.2214   18.0911   12.9815 O   0  0  0  0  0  0
   40.3013   17.5125   12.9696 C   0  0  0  0  0  0
   41.0386   17.4906   11.9694 O   0  5  0  0  0  0
   40.7490   16.7889   14.2354 C   0  0  0  0  0  0
   41.9222   16.0404   13.9182 O   0  0  0  0  0  0
   42.3244   15.0639   14.8669 C   0  0  0  0  0  0
   41.7851   13.7467   14.8433 C   0  0  0  0  0  0
   40.6104   13.3352   13.6804 Cl  0  0  0  0  0  0
   42.3161   12.9026   15.8577 C   0  0  0  0  0  0
   42.0419   11.4634   16.1629 C   0  0  0  0  0  0
   43.1286   10.7001   16.7209 C   0  0  0  0  0  0
   42.9909    9.3169   17.0357 C   0  0  0  0  0  0
   41.7451    8.6765   16.7835 C   0  0  0  0  0  0
   40.6494    9.4167   16.2267 C   0  0  0  0  0  0
   39.4214    8.7345   15.9688 N   0  0  0  0  0  0
   38.8637    7.5620   15.4168 C   0  0  0  0  0  0
   37.3333    7.6313   15.2956 C   0  0  0  0  0  0
   36.8298    6.2902   14.7063 C   0  0  0  0  0  0
   37.5090    5.9464   13.3491 N   0  0  2  0  0  0
   36.9737    4.4026   12.7509 S   0  0  0  0  0  0
   35.5491    4.5233   12.4223 O   0  0  0  0  0  0
   37.4668    3.3737   13.6732 O   0  0  0  0  0  0
   37.8667    4.2275   11.2211 C   0  0  0  0  0  0
   37.5074    5.3560   10.3005 C   0  0  0  0  0  0
   37.1493    6.5927   10.8240 C   0  0  0  0  0  0
   36.8165    7.6383    9.9710 C   0  0  0  0  0  0
   36.8417    7.4472    8.5946 C   0  0  0  0  0  0
   37.1997    6.2105    8.0712 C   0  0  0  0  0  0
   37.5326    5.1649    8.9241 C   0  0  0  0  0  0
   39.0615    6.0100   13.4098 C   0  0  0  0  0  0
   39.5435    7.3301   14.0419 C   0  0  0  0  0  0
   40.7852   10.8058   15.9152 C   0  0  0  0  0  0
   43.4366   13.7932   16.7870 S   0  0  0  0  0  0
   43.2684   15.2458   15.9117 C   0  0  0  0  0  0
   44.0177   16.3881   16.2628 C   0  0  0  0  0  0
   44.6171   16.3707   17.3398 O   0  0  0  0  0  0
   44.0683   17.3629   15.5186 O   0  5  0  0  0  0
   39.9551   16.1226   14.5731 H   0  0  0  0  0  0
   40.9658   17.5198   15.0144 H   0  0  0  0  0  0
   44.0800   11.1726   16.9174 H   0  0  0  0  0  0
   43.8238    8.7738   17.4573 H   0  0  0  0  0  0
   41.6376    7.6264   17.0138 H   0  0  0  0  0  0
   38.5727    9.1724   16.2974 H   0  0  0  0  0  0
   39.0995    6.7566   16.1123 H   0  0  0  0  0  0
   36.8895    7.8396   16.2691 H   0  0  0  0  0  0
   37.0609    8.4703   14.6554 H   0  0  0  0  0  0
   37.0264    5.4633   15.3888 H   0  0  0  0  0  0
   35.7481    6.3163   14.5751 H   0  0  0  0  0  0
   38.9379    4.2489   11.4212 H   0  0  0  0  0  0
   37.6033    3.2790   10.7532 H   0  0  0  0  0  0
   37.1297    6.7415   11.8956 H   0  0  0  0  0  0
   36.5377    8.6011   10.3785 H   0  0  0  0  0  0
   36.5825    8.2612    7.9305 H   0  0  0  0  0  0
   37.2194    6.0617    6.9996 H   0  0  0  0  0  0
   37.8114    4.2021    8.5166 H   0  0  0  0  0  0
   39.4048    5.1458   13.9784 H   0  0  0  0  0  0
   39.4725    5.8886   12.4076 H   0  0  0  0  0  0
   39.3127    8.1656   13.3811 H   0  0  0  0  0  0
   40.6275    7.3275   14.1558 H   0  0  0  0  0  0
   39.9922   11.3948   15.4886 H   0  0  0  0  0  0
  1  2  2  0  0  0
  2  3  1  0  0  0
  2  4  1  0  0  0
  4  5  1  0  0  0
  4 38  1  0  0  0
  4 39  1  0  0  0
  5  6  1  0  0  0
  6 34  2  0  0  0
  6  7  1  0  0  0
  7  8  1  0  0  0
  7  9  2  0  0  0
  9 10  1  0  0  0
  9 33  1  0  0  0
 10 32  1  0  0  0
 10 11  2  0  0  0
 11 12  1  0  0  0
 11 40  1  0  0  0
 12 13  2  0  0  0
 12 41  1  0  0  0
 13 14  1  0  0  0
 13 42  1  0  0  0
 14 15  1  0  0  0
 14 32  2  0  0  0
 15 16  1  0  0  0
 15 43  1  0  0  0
 16 31  1  0  0  0
 16 17  1  0  0  0
 16 44  1  0  0  0
 17 18  1  0  0  0
 17 45  1  0  0  0
 17 46  1  0  0  0
 18 19  1  0  0  0
 18 47  1  0  0  0
 18 48  1  0  0  0
 19 20  1  0  0  0
 19 30  1  0  0  0
 20 21  2  0  0  0
 20 22  2  0  0  0
 20 23  1  0  0  0
 23 24  1  0  0  0
 23 49  1  0  0  0
 23 50  1  0  0  0
 24 29  1  0  0  0
 24 25  2  0  0  0
 25 26  1  0  0  0
 25 51  1  0  0  0
 26 27  2  0  0  0
 26 52  1  0  0  0
 27 28  1  0  0  0
 27 53  1  0  0  0
 28 29  2  0  0  0
 28 54  1  0  0  0
 29 55  1  0  0  0
 30 31  1  0  0  0
 30 56  1  0  0  0
 30 57  1  0  0  0
 31 58  1  0  0  0
 31 59  1  0  0  0
 32 60  1  0  0  0
 33 34  1  0  0  0
 34 35  1  0  0  0
 35 36  2  0  0  0
 35 37  1  0  0  0
M  CHG  2   3  -1  37  -1
M  END
> <i_m_stars>
2

> <s_m_entry_id>
420

> <s_m_entry_name>
PTP1B_23486.1

> <r_user_dG.exp>
-12.4697848806838

> <r_m_Molecular_weight>
563.05226

> <s_m_Source_Path>
C:\Users\yujiethinkpad\Desktop\05A\PTP1B

> <s_m_Source_File>
PTP1B_23486.sdf

> <i_m_Source_File_Index>
1

> <s_m_job_name>
align_ligands_0000

> <i_phase_Input_Structure_Number>
13

> <i_phase_Structure_Number>
13

> <r_phase_Similarity_to_Reference>
0.695552413103118

> <i_phase_Reference_Structure>
1

> <s_phase_Alignment_Method>
snapped core

> <s_phase_Alignment_Reason>


> <s_phase_Core_SMARTS>
a1aaaa1-a2aa(aaa2)AA3AAAAA3

> <s_f3d_frozen_atoms>
33 34 6 7 9 10 32 14 13 12 11 15 16 17 18 19 30 31 8 60 42 41 40 43 44 45 46 47 48 56 57 58 59

> <s_m_subgroup_title>
align_ligands_0000

> <s_m_subgroupid>
align_ligands_0000

> <b_m_subgroup_collapsed>
0

$$$$
