20669(2qbr)
                    3D
 Schrodinger Suite 2021-2.
 42 44  0  0  1  0            999 V2000
   41.2140   17.6826   12.1192 O   0  0  0  0  0  0
   40.3624   17.5311   13.0273 C   0  0  0  0  0  0
   39.2025   17.9973   12.9840 O   0  5  0  0  0  0
   40.7591   16.7115   14.2597 C   0  0  0  0  0  0
   41.9403   15.9721   13.9773 O   0  0  0  0  0  0
   42.2861   15.0511   14.9026 C   0  0  0  0  0  0
   41.8500   13.7084   14.8730 C   0  0  0  0  0  0
   40.7360   13.2366   13.4415 Br  0  0  0  0  0  0
   42.2857   12.8787   15.8795 C   0  0  0  0  0  0
   42.0143   11.4513   16.1790 C   0  0  0  0  0  0
   42.7698   10.7617   17.1532 C   0  0  0  0  0  0
   42.5599    9.3940   17.4210 C   0  0  0  0  0  0
   41.6244    8.6526   16.6850 C   0  0  0  0  0  0
   40.9142    9.2859   15.6588 C   0  0  0  0  0  0
   39.9250    8.5407   14.8857 N   0  0  0  0  0  0
   39.6758    7.1331   15.1828 C   0  0  0  0  0  0
   38.2513    6.7974   14.8539 C   0  0  0  0  0  0
   37.2142    7.4646   15.4950 C   0  0  0  0  0  0
   35.8944    7.1535   15.1903 C   0  0  0  0  0  0
   35.6116    6.1751   14.2445 C   0  0  0  0  0  0
   36.6486    5.5079   13.6035 C   0  0  0  0  0  0
   37.9685    5.8190   13.9082 C   0  0  0  0  0  0
   41.0442   10.6812   15.4778 C   0  0  0  0  0  0
   43.3742   13.8144   16.8867 S   0  0  0  0  0  0
   43.1368   15.2762   15.9454 C   0  0  0  0  0  0
   43.8453   16.4863   16.3759 C   0  0  0  0  0  0
   44.4770   16.4775   17.4519 O   0  0  0  0  0  0
   43.7838   17.5156   15.6663 O   0  5  0  0  0  0
   40.9426   17.3826   15.0988 H   0  0  0  0  0  0
   39.9524   16.0241   14.5140 H   0  0  0  0  0  0
   43.5359   11.2787   17.7127 H   0  0  0  0  0  0
   43.1250    8.9050   18.2008 H   0  0  0  0  0  0
   41.4801    7.6121   16.9341 H   0  0  0  0  0  0
   39.4004    9.0102   14.1271 H   0  0  0  0  0  0
   40.3428    6.5120   14.5850 H   0  0  0  0  0  0
   39.8577    6.9475   16.2413 H   0  0  0  0  0  0
   37.4344    8.2263   16.2313 H   0  0  0  0  0  0
   35.0870    7.6730   15.6894 H   0  0  0  0  0  0
   34.5840    5.9329   14.0073 H   0  0  0  0  0  0
   36.4285    4.7462   12.8672 H   0  0  0  0  0  0
   38.7759    5.2995   13.4091 H   0  0  0  0  0  0
   40.3762   11.1733   14.7857 H   0  0  0  0  0  0
  1  2  2  0  0  0
  2  3  1  0  0  0
  2  4  1  0  0  0
  4  5  1  0  0  0
  4 29  1  0  0  0
  4 30  1  0  0  0
  5  6  1  0  0  0
  6 25  2  0  0  0
  6  7  1  0  0  0
  7  8  1  0  0  0
  7  9  2  0  0  0
  9 10  1  0  0  0
  9 24  1  0  0  0
 10 23  1  0  0  0
 10 11  2  0  0  0
 11 12  1  0  0  0
 11 31  1  0  0  0
 12 13  2  0  0  0
 12 32  1  0  0  0
 13 14  1  0  0  0
 13 33  1  0  0  0
 14 15  1  0  0  0
 14 23  2  0  0  0
 15 16  1  0  0  0
 15 34  1  0  0  0
 16 17  1  0  0  0
 16 35  1  0  0  0
 16 36  1  0  0  0
 17 22  1  0  0  0
 17 18  2  0  0  0
 18 19  1  0  0  0
 18 37  1  0  0  0
 19 20  2  0  0  0
 19 38  1  0  0  0
 20 21  1  0  0  0
 20 39  1  0  0  0
 21 22  2  0  0  0
 21 40  1  0  0  0
 22 41  1  0  0  0
 23 42  1  0  0  0
 24 25  1  0  0  0
 25 26  1  0  0  0
 26 27  2  0  0  0
 26 28  1  0  0  0
M  CHG  2   3  -1  28  -1
M  END
> <i_m_stars>
3

> <s_m_entry_id>
491

> <s_m_entry_name>
PTP1B_206692qbr.1

> <r_user_dG.exp>
-8.60732535283582

> <r_m_Molecular_weight>
460.31128

> <s_m_Source_Path>
C:\Users\yujiethinkpad\Desktop\05A\PTP1B

> <s_m_Source_File>
PTP1B_206692qbr.sdf

> <i_m_Source_File_Index>
1

> <s_m_job_name>
align_ligands_7103

> <i_phase_Input_Structure_Number>
15

> <i_phase_Structure_Number>
15

> <r_phase_Similarity_to_Reference>
0.869606927641833

> <i_phase_Reference_Structure>
1

> <s_phase_Alignment_Method>
snapped core

> <s_phase_Alignment_Reason>


> <s_phase_Core_SMARTS>
a1aaaa1-a2aaaaa2

> <s_f3d_frozen_atoms>
24 25 6 7 9 10 23 14 13 12 11 8 42 33 32 31

> <s_m_subgroup_title>
align_ligands_7103

> <s_m_subgroupid>
align_ligands_7103

> <b_m_subgroup_collapsed>
0

$$$$
