23468
                    3D
 Schrodinger Suite 2021-2.
 37 38  0  0  1  0            999 V2000
   37.1170    6.6375   14.8631 C   0  0  0  0  0  0
   38.4402    6.8586   14.1922 C   0  0  0  0  0  0
   39.4388    7.3404   15.2026 C   0  0  0  0  0  0
   39.7833    6.7256   16.2076 O   0  0  0  0  0  0
   39.9260    8.5402   14.8849 N   0  0  0  0  0  0
   40.9142    9.2859   15.6588 C   0  0  0  0  0  0
   41.6244    8.6526   16.6850 C   0  0  0  0  0  0
   42.5599    9.3940   17.4210 C   0  0  0  0  0  0
   42.7698   10.7617   17.1532 C   0  0  0  0  0  0
   42.0143   11.4513   16.1790 C   0  0  0  0  0  0
   42.2857   12.8787   15.8795 C   0  0  0  0  0  0
   43.3742   13.8144   16.8867 S   0  0  0  0  0  0
   43.1368   15.2762   15.9454 C   0  0  0  0  0  0
   43.8453   16.4863   16.3759 C   0  0  0  0  0  0
   44.4770   16.4775   17.4519 O   0  0  0  0  0  0
   43.7838   17.5156   15.6663 O   0  5  0  0  0  0
   42.2861   15.0511   14.9026 C   0  0  0  0  0  0
   41.9403   15.9721   13.9773 O   0  0  0  0  0  0
   40.7591   16.7115   14.2597 C   0  0  0  0  0  0
   40.3624   17.5311   13.0273 C   0  0  0  0  0  0
   41.2140   17.6826   12.1192 O   0  0  0  0  0  0
   39.2025   17.9973   12.9840 O   0  5  0  0  0  0
   41.8500   13.7084   14.8730 C   0  0  0  0  0  0
   40.7360   13.2366   13.4415 Br  0  0  0  0  0  0
   41.0442   10.6812   15.4778 C   0  0  0  0  0  0
   36.3914    6.2874   14.1289 H   0  0  0  0  0  0
   37.2283    5.8903   15.6488 H   0  0  0  0  0  0
   36.7697    7.5742   15.2991 H   0  0  0  0  0  0
   38.7876    5.9219   13.7562 H   0  0  0  0  0  0
   38.3289    7.6058   13.4065 H   0  0  0  0  0  0
   39.6711    9.0798   14.0701 H   0  0  0  0  0  0
   41.4590    7.6148   16.9297 H   0  0  0  0  0  0
   43.1245    8.9178   18.2089 H   0  0  0  0  0  0
   43.5191   11.3006   17.7146 H   0  0  0  0  0  0
   39.9523   16.0241   14.5140 H   0  0  0  0  0  0
   40.9425   17.3827   15.0987 H   0  0  0  0  0  0
   40.3964   11.1870   14.7767 H   0  0  0  0  0  0
  1  2  1  0  0  0
  1 26  1  0  0  0
  1 27  1  0  0  0
  1 28  1  0  0  0
  2  3  1  0  0  0
  2 29  1  0  0  0
  2 30  1  0  0  0
  3  4  2  0  0  0
  3  5  1  0  0  0
  5  6  1  0  0  0
  5 31  1  0  0  0
  6 25  1  0  0  0
  6  7  2  0  0  0
  7  8  1  0  0  0
  7 32  1  0  0  0
  8  9  2  0  0  0
  8 33  1  0  0  0
  9 10  1  0  0  0
  9 34  1  0  0  0
 10 11  1  0  0  0
 10 25  2  0  0  0
 11 23  2  0  0  0
 11 12  1  0  0  0
 12 13  1  0  0  0
 13 14  1  0  0  0
 13 17  2  0  0  0
 14 15  2  0  0  0
 14 16  1  0  0  0
 17 18  1  0  0  0
 17 23  1  0  0  0
 18 19  1  0  0  0
 19 20  1  0  0  0
 19 35  1  0  0  0
 19 36  1  0  0  0
 20 21  2  0  0  0
 20 22  1  0  0  0
 23 24  1  0  0  0
 25 37  1  0  0  0
M  CHG  2  16  -1  22  -1
M  END
> <i_m_stars>
2

> <s_m_entry_id>
495

> <s_m_entry_name>
PTP1B_23468.1

> <r_user_dG.exp>
-7.75184064198728

> <r_m_Molecular_weight>
426.25014

> <s_m_Source_Path>
C:\Users\yujiethinkpad\Desktop\05A\PTP1B

> <s_m_Source_File>
PTP1B_23468.sdf

> <i_m_Source_File_Index>
1

> <s_m_job_name>
align_ligands_7103

> <i_phase_Input_Structure_Number>
19

> <i_phase_Structure_Number>
19

> <r_phase_Similarity_to_Reference>
0.827600354673295

> <i_phase_Reference_Structure>
1

> <s_phase_Alignment_Method>
snapped core

> <s_phase_Alignment_Reason>


> <s_phase_Core_SMARTS>
a1aaaa1-a2aaaaa2

> <s_f3d_frozen_atoms>
12 13 17 23 11 10 25 6 7 8 9 24 37 32 33 34

> <s_m_subgroup_title>
align_ligands_7103

> <s_m_subgroupid>
align_ligands_7103

> <b_m_subgroup_collapsed>
0

$$$$
