23470
                    3D
 Schrodinger Suite 2021-2.
 42 43  0  0  1  0            999 V2000
   36.3716    5.8637   14.4576 C   0  0  0  0  0  0
   37.8503    5.6187   14.3985 C   0  0  0  0  0  0
   38.1727    4.7957   13.1866 C   0  0  0  0  0  0
   38.5525    6.8963   14.3201 N   0  0  0  0  0  0
   39.4403    7.3444   15.2016 C   0  0  0  0  0  0
   39.7760    6.7203   16.2017 O   0  0  0  0  0  0
   39.9260    8.5402   14.8850 N   0  0  0  0  0  0
   40.9142    9.2859   15.6588 C   0  0  0  0  0  0
   41.6244    8.6526   16.6850 C   0  0  0  0  0  0
   42.5599    9.3940   17.4210 C   0  0  0  0  0  0
   42.7698   10.7617   17.1532 C   0  0  0  0  0  0
   42.0143   11.4513   16.1790 C   0  0  0  0  0  0
   42.2857   12.8787   15.8795 C   0  0  0  0  0  0
   43.3742   13.8144   16.8867 S   0  0  0  0  0  0
   43.1368   15.2762   15.9454 C   0  0  0  0  0  0
   43.8453   16.4863   16.3759 C   0  0  0  0  0  0
   44.4770   16.4775   17.4519 O   0  0  0  0  0  0
   43.7838   17.5156   15.6663 O   0  5  0  0  0  0
   42.2861   15.0511   14.9026 C   0  0  0  0  0  0
   41.9403   15.9721   13.9773 O   0  0  0  0  0  0
   40.7591   16.7115   14.2597 C   0  0  0  0  0  0
   40.3624   17.5311   13.0273 C   0  0  0  0  0  0
   41.2140   17.6826   12.1192 O   0  0  0  0  0  0
   39.2025   17.9973   12.9840 O   0  5  0  0  0  0
   41.8500   13.7084   14.8730 C   0  0  0  0  0  0
   40.7360   13.2366   13.4415 Br  0  0  0  0  0  0
   41.0442   10.6812   15.4778 C   0  0  0  0  0  0
   35.8473    4.9099   14.5162 H   0  0  0  0  0  0
   36.1373    6.4618   15.3383 H   0  0  0  0  0  0
   36.0556    6.3975   13.5614 H   0  0  0  0  0  0
   38.1662    5.0849   15.2948 H   0  0  0  0  0  0
   37.6484    3.8419   13.2452 H   0  0  0  0  0  0
   37.8567    5.3296   12.2903 H   0  0  0  0  0  0
   39.2472    4.6177   13.1436 H   0  0  0  0  0  0
   38.2553    7.3837   13.4894 H   0  0  0  0  0  0
   39.6715    9.0787   14.0719 H   0  0  0  0  0  0
   41.4607    7.6149   16.9305 H   0  0  0  0  0  0
   43.1248    8.9174   18.2086 H   0  0  0  0  0  0
   43.5191   11.3012   17.7141 H   0  0  0  0  0  0
   39.9523   16.0241   14.5140 H   0  0  0  0  0  0
   40.9425   17.3827   15.0987 H   0  0  0  0  0  0
   40.3958   11.1880   14.7774 H   0  0  0  0  0  0
  1  2  1  0  0  0
  1 28  1  0  0  0
  1 29  1  0  0  0
  1 30  1  0  0  0
  2  3  1  0  0  0
  2  4  1  0  0  0
  2 31  1  0  0  0
  3 32  1  0  0  0
  3 33  1  0  0  0
  3 34  1  0  0  0
  4  5  1  0  0  0
  4 35  1  0  0  0
  5  6  2  0  0  0
  5  7  1  0  0  0
  7  8  1  0  0  0
  7 36  1  0  0  0
  8 27  1  0  0  0
  8  9  2  0  0  0
  9 10  1  0  0  0
  9 37  1  0  0  0
 10 11  2  0  0  0
 10 38  1  0  0  0
 11 12  1  0  0  0
 11 39  1  0  0  0
 12 13  1  0  0  0
 12 27  2  0  0  0
 13 25  2  0  0  0
 13 14  1  0  0  0
 14 15  1  0  0  0
 15 16  1  0  0  0
 15 19  2  0  0  0
 16 17  2  0  0  0
 16 18  1  0  0  0
 19 20  1  0  0  0
 19 25  1  0  0  0
 20 21  1  0  0  0
 21 22  1  0  0  0
 21 40  1  0  0  0
 21 41  1  0  0  0
 22 23  2  0  0  0
 22 24  1  0  0  0
 25 26  1  0  0  0
 27 42  1  0  0  0
M  CHG  2  18  -1  24  -1
M  END
> <i_m_stars>
2

> <s_m_entry_id>
497

> <s_m_entry_name>
PTP1B_23470.1

> <r_user_dG.exp>
-7.72301857947764

> <r_m_Molecular_weight>
455.2919

> <s_m_Source_Path>
C:\Users\yujiethinkpad\Desktop\05A\PTP1B

> <s_m_Source_File>
PTP1B_23470.sdf

> <i_m_Source_File_Index>
1

> <s_m_job_name>
align_ligands_7103

> <i_phase_Input_Structure_Number>
21

> <i_phase_Structure_Number>
21

> <r_phase_Similarity_to_Reference>
0.832213573661953

> <i_phase_Reference_Structure>
1

> <s_phase_Alignment_Method>
snapped core

> <s_phase_Alignment_Reason>


> <s_phase_Core_SMARTS>
a1aaaa1-a2aaaaa2

> <s_f3d_frozen_atoms>
14 15 19 25 13 12 27 8 9 10 11 26 42 37 38 39

> <s_m_subgroup_title>
align_ligands_7103

> <s_m_subgroupid>
align_ligands_7103

> <b_m_subgroup_collapsed>
0

$$$$
