23479
                    3D
 Schrodinger Suite 2021-2.
 49 51  0  0  1  0            999 V2000
   35.8200    4.4278   16.3131 C   0  0  0  0  0  0
   36.6024    4.5137   15.0011 C   0  0  0  0  0  0
   36.7405    3.4838   14.3410 O   0  0  0  0  0  0
   37.1268    5.7279   14.6072 N   0  0  0  0  0  0
   36.9791    7.0476   15.3852 C   0  0  0  0  0  0
   38.3513    7.6671   15.7142 C   0  0  0  0  0  0
   39.1351    7.9031   14.4230 C   0  0  0  0  0  0
   40.4542    8.4867   14.6017 N   0  0  0  0  0  0
   40.9142    9.2859   15.6588 C   0  0  0  0  0  0
   41.6244    8.6526   16.6850 C   0  0  0  0  0  0
   42.5599    9.3940   17.4210 C   0  0  0  0  0  0
   42.7698   10.7617   17.1532 C   0  0  0  0  0  0
   42.0143   11.4513   16.1790 C   0  0  0  0  0  0
   42.2857   12.8787   15.8795 C   0  0  0  0  0  0
   43.3742   13.8144   16.8867 S   0  0  0  0  0  0
   43.1368   15.2762   15.9454 C   0  0  0  0  0  0
   43.8453   16.4863   16.3759 C   0  0  0  0  0  0
   44.4770   16.4775   17.4519 O   0  0  0  0  0  0
   43.7838   17.5156   15.6663 O   0  5  0  0  0  0
   42.2861   15.0511   14.9026 C   0  0  0  0  0  0
   41.9403   15.9721   13.9773 O   0  0  0  0  0  0
   40.7591   16.7115   14.2597 C   0  0  0  0  0  0
   40.3624   17.5311   13.0273 C   0  0  0  0  0  0
   41.2140   17.6826   12.1192 O   0  0  0  0  0  0
   39.2025   17.9973   12.9840 O   0  5  0  0  0  0
   41.8500   13.7084   14.8730 C   0  0  0  0  0  0
   40.7360   13.2366   13.4415 Br  0  0  0  0  0  0
   41.0442   10.6812   15.4778 C   0  0  0  0  0  0
   39.2890    6.5851   13.6193 C   0  0  0  0  0  0
   37.9406    5.9172   13.3177 C   0  0  0  0  0  0
   35.5088    3.4008   16.5073 H   0  0  0  0  0  0
   36.4348    4.7529   17.1529 H   0  0  0  0  0  0
   34.9225    5.0450   16.2686 H   0  0  0  0  0  0
   36.3797    7.7782   14.8421 H   0  0  0  0  0  0
   36.4387    6.8430   16.3095 H   0  0  0  0  0  0
   38.2077    8.6065   16.2481 H   0  0  0  0  0  0
   38.9032    7.0133   16.3896 H   0  0  0  0  0  0
   38.6069    8.6265   13.8019 H   0  0  0  0  0  0
   41.1333    8.2950   13.8787 H   0  0  0  0  0  0
   41.4733    7.6137   16.9258 H   0  0  0  0  0  0
   43.1305    8.9156   18.2032 H   0  0  0  0  0  0
   43.5308   11.2977   17.7014 H   0  0  0  0  0  0
   39.9395   16.0643   14.5770 H   0  0  0  0  0  0
   40.9654   17.3792   15.0966 H   0  0  0  0  0  0
   40.3841   11.1891   14.7894 H   0  0  0  0  0  0
   39.7986    6.7897   12.6777 H   0  0  0  0  0  0
   39.9240    5.8871   14.1648 H   0  0  0  0  0  0
   38.1117    4.9758   12.7956 H   0  0  0  0  0  0
   37.3610    6.5379   12.6344 H   0  0  0  0  0  0
  1  2  1  0  0  0
  1 31  1  0  0  0
  1 32  1  0  0  0
  1 33  1  0  0  0
  2  3  2  0  0  0
  2  4  1  0  0  0
  4 30  1  0  0  0
  4  5  1  0  0  0
  5  6  1  0  0  0
  5 34  1  0  0  0
  5 35  1  0  0  0
  6  7  1  0  0  0
  6 36  1  0  0  0
  6 37  1  0  0  0
  7  8  1  0  0  0
  7 29  1  0  0  0
  7 38  1  0  0  0
  8  9  1  0  0  0
  8 39  1  0  0  0
  9 28  1  0  0  0
  9 10  2  0  0  0
 10 11  1  0  0  0
 10 40  1  0  0  0
 11 12  2  0  0  0
 11 41  1  0  0  0
 12 13  1  0  0  0
 12 42  1  0  0  0
 13 14  1  0  0  0
 13 28  2  0  0  0
 14 26  2  0  0  0
 14 15  1  0  0  0
 15 16  1  0  0  0
 16 17  1  0  0  0
 16 20  2  0  0  0
 17 18  2  0  0  0
 17 19  1  0  0  0
 20 21  1  0  0  0
 20 26  1  0  0  0
 21 22  1  0  0  0
 22 23  1  0  0  0
 22 43  1  0  0  0
 22 44  1  0  0  0
 23 24  2  0  0  0
 23 25  1  0  0  0
 26 27  1  0  0  0
 28 45  1  0  0  0
 29 30  1  0  0  0
 29 46  1  0  0  0
 29 47  1  0  0  0
 30 48  1  0  0  0
 30 49  1  0  0  0
M  CHG  2  19  -1  25  -1
M  END
> <i_m_stars>
2

> <s_m_entry_id>
483

> <s_m_entry_name>
PTP1B_23479.1

> <r_user_dG.exp>
-9.14235922654499

> <r_m_Molecular_weight>
495.35723

> <s_m_Source_Path>
C:\Users\yujiethinkpad\Desktop\05A\PTP1B

> <s_m_Source_File>
PTP1B_23479.sdf

> <i_m_Source_File_Index>
1

> <s_m_job_name>
align_ligands_7103

> <i_phase_Input_Structure_Number>
7

> <i_phase_Structure_Number>
7

> <r_phase_Similarity_to_Reference>
0.919393971387408

> <i_phase_Reference_Structure>
1

> <s_phase_Alignment_Method>
snapped core

> <s_phase_Alignment_Reason>


> <s_phase_Core_SMARTS>
a1aaaa1-a2aa(aaa2)AA3AAAAA3

> <s_f3d_frozen_atoms>
15 16 20 26 14 13 28 9 10 11 12 8 7 29 30 4 5 6 27 45 40 41 42 39 38 46 47 48 49 34 35 36 37

> <s_m_subgroup_title>
align_ligands_7103

> <s_m_subgroupid>
align_ligands_7103

> <b_m_subgroup_collapsed>
0

$$$$
