23475
                    3D
 Schrodinger Suite 2021-2.
 42 44  0  0  1  0            999 V2000
   41.2140   17.6826   12.1192 O   0  0  0  0  0  0
   40.3624   17.5311   13.0273 C   0  0  0  0  0  0
   39.2025   17.9973   12.9840 O   0  5  0  0  0  0
   40.7591   16.7115   14.2597 C   0  0  0  0  0  0
   41.9403   15.9721   13.9773 O   0  0  0  0  0  0
   42.2861   15.0511   14.9026 C   0  0  0  0  0  0
   41.8500   13.7084   14.8730 C   0  0  0  0  0  0
   40.7360   13.2366   13.4415 Br  0  0  0  0  0  0
   42.2857   12.8787   15.8795 C   0  0  0  0  0  0
   42.0143   11.4513   16.1790 C   0  0  0  0  0  0
   42.7698   10.7617   17.1532 C   0  0  0  0  0  0
   42.5599    9.3940   17.4210 C   0  0  0  0  0  0
   41.6244    8.6526   16.6850 C   0  0  0  0  0  0
   40.9142    9.2859   15.6588 C   0  0  0  0  0  0
   39.9254    8.5408   14.8851 N   0  0  0  0  0  0
   39.6763    7.1331   15.1816 C   0  0  0  0  0  0
   39.1711    6.4141   13.9285 C   0  0  0  0  0  0
   37.6485    6.6282   13.9127 C   0  0  0  0  0  0
   37.2730    7.1898   15.2942 C   0  0  0  0  0  0
   38.5165    7.0051   16.1673 C   0  0  0  0  0  0
   41.0442   10.6812   15.4778 C   0  0  0  0  0  0
   43.3742   13.8144   16.8867 S   0  0  0  0  0  0
   43.1368   15.2762   15.9454 C   0  0  0  0  0  0
   43.8453   16.4863   16.3759 C   0  0  0  0  0  0
   44.4770   16.4775   17.4519 O   0  0  0  0  0  0
   43.7838   17.5156   15.6663 O   0  5  0  0  0  0
   39.9524   16.0241   14.5140 H   0  0  0  0  0  0
   40.9426   17.3826   15.0988 H   0  0  0  0  0  0
   43.5352   11.2791   17.7134 H   0  0  0  0  0  0
   43.1250    8.9040   18.2001 H   0  0  0  0  0  0
   41.4706    7.6097   16.9216 H   0  0  0  0  0  0
   39.4009    9.0105   14.1266 H   0  0  0  0  0  0
   40.6067    6.7107   15.5652 H   0  0  0  0  0  0
   39.6557    6.7753   13.0196 H   0  0  0  0  0  0
   39.3912    5.3472   14.0057 H   0  0  0  0  0  0
   37.3550    7.3242   13.1244 H   0  0  0  0  0  0
   37.1317    5.6873   13.7140 H   0  0  0  0  0  0
   37.0418    8.2536   15.2078 H   0  0  0  0  0  0
   36.3924    6.7051   15.7195 H   0  0  0  0  0  0
   38.5156    6.0087   16.6145 H   0  0  0  0  0  0
   38.5718    7.7286   16.9826 H   0  0  0  0  0  0
   40.3863   11.1909   14.7909 H   0  0  0  0  0  0
  1  2  2  0  0  0
  2  3  1  0  0  0
  2  4  1  0  0  0
  4  5  1  0  0  0
  4 27  1  0  0  0
  4 28  1  0  0  0
  5  6  1  0  0  0
  6 23  2  0  0  0
  6  7  1  0  0  0
  7  8  1  0  0  0
  7  9  2  0  0  0
  9 10  1  0  0  0
  9 22  1  0  0  0
 10 21  1  0  0  0
 10 11  2  0  0  0
 11 12  1  0  0  0
 11 29  1  0  0  0
 12 13  2  0  0  0
 12 30  1  0  0  0
 13 14  1  0  0  0
 13 31  1  0  0  0
 14 15  1  0  0  0
 14 21  2  0  0  0
 15 16  1  0  0  0
 15 32  1  0  0  0
 16 20  1  0  0  0
 16 17  1  0  0  0
 16 33  1  0  0  0
 17 18  1  0  0  0
 17 34  1  0  0  0
 17 35  1  0  0  0
 18 19  1  0  0  0
 18 36  1  0  0  0
 18 37  1  0  0  0
 19 20  1  0  0  0
 19 38  1  0  0  0
 19 39  1  0  0  0
 20 40  1  0  0  0
 20 41  1  0  0  0
 21 42  1  0  0  0
 22 23  1  0  0  0
 23 24  1  0  0  0
 24 25  2  0  0  0
 24 26  1  0  0  0
M  CHG  2   3  -1  26  -1
M  END
> <i_m_stars>
2

> <s_m_entry_id>
480

> <s_m_entry_name>
PTP1B_23475.1

> <r_user_dG.exp>
-8.71754822596421

> <r_m_Molecular_weight>
438.30492

> <s_m_Source_Path>
C:\Users\yujiethinkpad\Desktop\05A\PTP1B

> <s_m_Source_File>
PTP1B_23475.sdf

> <i_m_Source_File_Index>
1

> <s_m_job_name>
align_ligands_7103

> <i_phase_Input_Structure_Number>
4

> <i_phase_Structure_Number>
4

> <r_phase_Similarity_to_Reference>
0.898781491660793

> <i_phase_Reference_Structure>
1

> <s_phase_Alignment_Method>
snapped core

> <s_phase_Alignment_Reason>


> <s_phase_Core_SMARTS>
a1aaaa1-a2aaaaa2

> <s_f3d_frozen_atoms>
22 23 6 7 9 10 21 14 13 12 11 8 42 31 30 29

> <s_m_subgroup_title>
align_ligands_7103

> <s_m_subgroupid>
align_ligands_7103

> <b_m_subgroup_collapsed>
0

$$$$
