23477
                    3D
 Schrodinger Suite 2021-2.
 43 45  0  0  1  0            999 V2000
   41.2140   17.6826   12.1192 O   0  0  0  0  0  0
   40.3624   17.5311   13.0273 C   0  0  0  0  0  0
   39.2025   17.9973   12.9840 O   0  5  0  0  0  0
   40.7591   16.7115   14.2597 C   0  0  0  0  0  0
   41.9403   15.9721   13.9773 O   0  0  0  0  0  0
   42.2861   15.0511   14.9026 C   0  0  0  0  0  0
   41.8500   13.7084   14.8730 C   0  0  0  0  0  0
   40.7360   13.2366   13.4415 Br  0  0  0  0  0  0
   42.2857   12.8787   15.8795 C   0  0  0  0  0  0
   42.0143   11.4513   16.1790 C   0  0  0  0  0  0
   42.7698   10.7617   17.1532 C   0  0  0  0  0  0
   42.5599    9.3940   17.4210 C   0  0  0  0  0  0
   41.6244    8.6526   16.6850 C   0  0  0  0  0  0
   40.9142    9.2859   15.6588 C   0  0  0  0  0  0
   40.4542    8.4867   14.6017 N   0  0  0  0  0  0
   39.1351    7.9031   14.4230 C   0  0  0  0  0  0
   38.3513    7.6671   15.7142 C   0  0  0  0  0  0
   36.9791    7.0476   15.3852 C   0  0  0  0  0  0
   37.1268    5.7279   14.6072 O   0  0  0  0  0  0
   37.9406    5.9172   13.3177 C   0  0  0  0  0  0
   39.2890    6.5851   13.6193 C   0  0  0  0  0  0
   41.0442   10.6812   15.4778 C   0  0  0  0  0  0
   43.3742   13.8144   16.8867 S   0  0  0  0  0  0
   43.1368   15.2762   15.9454 C   0  0  0  0  0  0
   43.8453   16.4863   16.3759 C   0  0  0  0  0  0
   44.4770   16.4775   17.4519 O   0  0  0  0  0  0
   43.7838   17.5156   15.6663 O   0  5  0  0  0  0
   39.9253   16.0781   14.5675 H   0  0  0  0  0  0
   40.9518   17.3912   15.0901 H   0  0  0  0  0  0
   43.5360   11.2784   17.7127 H   0  0  0  0  0  0
   43.1262    8.9038   18.1991 H   0  0  0  0  0  0
   41.4712    7.6095   16.9213 H   0  0  0  0  0  0
   41.0073    8.4334   13.7584 H   0  0  0  0  0  0
   38.5452    8.6283   13.8626 H   0  0  0  0  0  0
   38.9119    7.0014   16.3704 H   0  0  0  0  0  0
   38.2278    8.6043   16.2571 H   0  0  0  0  0  0
   36.4327    6.8392   16.3051 H   0  0  0  0  0  0
   36.3690    7.7400   14.8053 H   0  0  0  0  0  0
   38.1100    4.9433   12.8585 H   0  0  0  0  0  0
   37.3750    6.5110   12.5998 H   0  0  0  0  0  0
   39.8098    6.7744   12.6806 H   0  0  0  0  0  0
   39.9054    5.8812   14.1783 H   0  0  0  0  0  0
   40.3907   11.1922   14.7879 H   0  0  0  0  0  0
  1  2  2  0  0  0
  2  3  1  0  0  0
  2  4  1  0  0  0
  4  5  1  0  0  0
  4 28  1  0  0  0
  4 29  1  0  0  0
  5  6  1  0  0  0
  6 24  2  0  0  0
  6  7  1  0  0  0
  7  8  1  0  0  0
  7  9  2  0  0  0
  9 10  1  0  0  0
  9 23  1  0  0  0
 10 22  1  0  0  0
 10 11  2  0  0  0
 11 12  1  0  0  0
 11 30  1  0  0  0
 12 13  2  0  0  0
 12 31  1  0  0  0
 13 14  1  0  0  0
 13 32  1  0  0  0
 14 15  1  0  0  0
 14 22  2  0  0  0
 15 16  1  0  0  0
 15 33  1  0  0  0
 16 21  1  0  0  0
 16 17  1  0  0  0
 16 34  1  0  0  0
 17 18  1  0  0  0
 17 35  1  0  0  0
 17 36  1  0  0  0
 18 19  1  0  0  0
 18 37  1  0  0  0
 18 38  1  0  0  0
 19 20  1  0  0  0
 20 21  1  0  0  0
 20 39  1  0  0  0
 20 40  1  0  0  0
 21 41  1  0  0  0
 21 42  1  0  0  0
 22 43  1  0  0  0
 23 24  1  0  0  0
 24 25  1  0  0  0
 25 26  2  0  0  0
 25 27  1  0  0  0
M  CHG  2   3  -1  27  -1
M  END
> <i_m_stars>
2

> <s_m_entry_id>
482

> <s_m_entry_name>
PTP1B_23477.1

> <r_user_dG.exp>
-8.85316590670652

> <r_m_Molecular_weight>
454.30432

> <s_m_Source_Path>
C:\Users\yujiethinkpad\Desktop\05A\PTP1B

> <s_m_Source_File>
PTP1B_23477.sdf

> <i_m_Source_File_Index>
1

> <s_m_job_name>
align_ligands_7103

> <i_phase_Input_Structure_Number>
6

> <i_phase_Structure_Number>
6

> <r_phase_Similarity_to_Reference>
0.947325875635471

> <i_phase_Reference_Structure>
1

> <s_phase_Alignment_Method>
snapped core

> <s_phase_Alignment_Reason>


> <s_phase_Core_SMARTS>
a1aaaa1-a2aa(aaa2)AA3AAAAA3

> <s_f3d_frozen_atoms>
23 24 6 7 9 10 22 14 13 12 11 15 16 21 20 19 18 17 8 43 32 31 30 33 34 41 42 39 40 37 38 35 36

> <s_m_subgroup_title>
align_ligands_7103

> <s_m_subgroupid>
align_ligands_7103

> <b_m_subgroup_collapsed>
0

$$$$
