23472
                    3D
 Schrodinger Suite 2021-2.
 42 44  0  0  1  0            999 V2000
   41.2140   17.6826   12.1192 O   0  0  0  0  0  0
   40.3624   17.5311   13.0273 C   0  0  0  0  0  0
   39.2025   17.9973   12.9840 O   0  5  0  0  0  0
   40.7591   16.7115   14.2597 C   0  0  0  0  0  0
   41.9403   15.9721   13.9773 O   0  0  0  0  0  0
   42.2861   15.0511   14.9026 C   0  0  0  0  0  0
   41.8500   13.7084   14.8730 C   0  0  0  0  0  0
   40.7360   13.2366   13.4415 Br  0  0  0  0  0  0
   42.2857   12.8787   15.8795 C   0  0  0  0  0  0
   42.0143   11.4513   16.1790 C   0  0  0  0  0  0
   42.7698   10.7617   17.1532 C   0  0  0  0  0  0
   42.5599    9.3940   17.4210 C   0  0  0  0  0  0
   41.6244    8.6526   16.6850 C   0  0  0  0  0  0
   40.9142    9.2859   15.6588 C   0  0  0  0  0  0
   39.9270    8.5404   14.8835 N   0  0  0  0  0  0
   39.6319    6.8619   15.2349 S   0  0  0  0  0  0
   40.4380    6.0649   14.3037 O   0  0  0  0  0  0
   39.7362    6.6874   16.6877 O   0  0  0  0  0  0
   37.9224    6.6475   14.7877 C   0  0  0  0  0  0
   36.9258    6.8576   15.7383 C   0  0  0  0  0  0
   35.5859    6.6925   15.3986 C   0  0  0  0  0  0
   35.2513    6.3163   14.1033 C   0  0  0  0  0  0
   33.9532    6.1534   13.7637 F   0  0  0  0  0  0
   36.2473    6.1067   13.1549 C   0  0  0  0  0  0
   37.5883    6.2707   13.4902 C   0  0  0  0  0  0
   41.0442   10.6812   15.4778 C   0  0  0  0  0  0
   43.3742   13.8144   16.8867 S   0  0  0  0  0  0
   43.1368   15.2762   15.9454 C   0  0  0  0  0  0
   43.8453   16.4863   16.3759 C   0  0  0  0  0  0
   44.4770   16.4775   17.4519 O   0  0  0  0  0  0
   43.7838   17.5156   15.6663 O   0  5  0  0  0  0
   40.9426   17.3826   15.0988 H   0  0  0  0  0  0
   39.9524   16.0241   14.5140 H   0  0  0  0  0  0
   43.5257   11.2831   17.7221 H   0  0  0  0  0  0
   43.1209    8.9058   18.2041 H   0  0  0  0  0  0
   41.4715    7.6139   16.9332 H   0  0  0  0  0  0
   39.4026    9.0102   14.1250 H   0  0  0  0  0  0
   37.1934    7.1503   16.7446 H   0  0  0  0  0  0
   34.8083    6.8539   16.1312 H   0  0  0  0  0  0
   35.9715    5.8145   12.1519 H   0  0  0  0  0  0
   38.3607    6.1071   12.7508 H   0  0  0  0  0  0
   40.3855   11.1686   14.7735 H   0  0  0  0  0  0
  1  2  2  0  0  0
  2  3  1  0  0  0
  2  4  1  0  0  0
  4  5  1  0  0  0
  4 32  1  0  0  0
  4 33  1  0  0  0
  5  6  1  0  0  0
  6 28  2  0  0  0
  6  7  1  0  0  0
  7  8  1  0  0  0
  7  9  2  0  0  0
  9 10  1  0  0  0
  9 27  1  0  0  0
 10 26  1  0  0  0
 10 11  2  0  0  0
 11 12  1  0  0  0
 11 34  1  0  0  0
 12 13  2  0  0  0
 12 35  1  0  0  0
 13 14  1  0  0  0
 13 36  1  0  0  0
 14 15  1  0  0  0
 14 26  2  0  0  0
 15 16  1  0  0  0
 15 37  1  0  0  0
 16 17  2  0  0  0
 16 18  2  0  0  0
 16 19  1  0  0  0
 19 25  1  0  0  0
 19 20  2  0  0  0
 20 21  1  0  0  0
 20 38  1  0  0  0
 21 22  2  0  0  0
 21 39  1  0  0  0
 22 23  1  0  0  0
 22 24  1  0  0  0
 24 25  2  0  0  0
 24 40  1  0  0  0
 25 41  1  0  0  0
 26 42  1  0  0  0
 27 28  1  0  0  0
 28 29  1  0  0  0
 29 30  2  0  0  0
 29 31  1  0  0  0
M  CHG  2   3  -1  31  -1
M  END
> <i_m_stars>
2

> <s_m_entry_id>
499

> <s_m_entry_name>
PTP1B_23472.1

> <r_user_dG.exp>
-8.64628903953511

> <r_m_Molecular_weight>
528.33742

> <s_m_Source_Path>
C:\Users\yujiethinkpad\Desktop\05A\PTP1B

> <s_m_Source_File>
PTP1B_23472.sdf

> <i_m_Source_File_Index>
1

> <s_m_job_name>
align_ligands_7103

> <i_phase_Input_Structure_Number>
23

> <i_phase_Structure_Number>
23

> <r_phase_Similarity_to_Reference>
0.819215866156527

> <i_phase_Reference_Structure>
1

> <s_phase_Alignment_Method>
snapped core

> <s_phase_Alignment_Reason>


> <s_phase_Core_SMARTS>
a1aaaa1-a2aaaaa2

> <s_f3d_frozen_atoms>
27 28 6 7 9 10 26 14 13 12 11 8 42 36 35 34

> <s_m_subgroup_title>
align_ligands_7103

> <s_m_subgroupid>
align_ligands_7103

> <b_m_subgroup_collapsed>
0

$$$$
