23474
                    3D
 Schrodinger Suite 2021-2.
 48 50  0  0  1  0            999 V2000
   41.2140   17.6826   12.1192 O   0  0  0  0  0  0
   40.3624   17.5311   13.0273 C   0  0  0  0  0  0
   39.2025   17.9973   12.9840 O   0  5  0  0  0  0
   40.7591   16.7115   14.2597 C   0  0  0  0  0  0
   41.9403   15.9721   13.9773 O   0  0  0  0  0  0
   42.2861   15.0511   14.9026 C   0  0  0  0  0  0
   41.8500   13.7084   14.8730 C   0  0  0  0  0  0
   40.7360   13.2366   13.4415 Br  0  0  0  0  0  0
   42.2857   12.8787   15.8795 C   0  0  0  0  0  0
   42.0143   11.4513   16.1790 C   0  0  0  0  0  0
   42.7698   10.7617   17.1532 C   0  0  0  0  0  0
   42.5599    9.3940   17.4210 C   0  0  0  0  0  0
   41.6244    8.6526   16.6850 C   0  0  0  0  0  0
   40.9142    9.2859   15.6588 C   0  0  0  0  0  0
   39.9291    8.5400   14.8813 N   0  0  0  0  0  0
   39.6833    7.1308   15.1737 C   0  0  0  0  0  0
   39.2671    6.4246   13.9175 C   0  0  0  0  0  0
   37.9971    7.0914   13.3516 C   0  0  0  0  0  0
   36.7782    6.8719   14.2703 C   0  0  0  0  0  0
   36.5526    5.3770   14.5736 C   0  0  0  0  0  0
   37.8226    4.7103   15.1395 C   0  0  0  0  0  0
   39.0415    4.9297   14.2208 C   0  0  0  0  0  0
   41.0442   10.6812   15.4778 C   0  0  0  0  0  0
   43.3742   13.8144   16.8867 S   0  0  0  0  0  0
   43.1368   15.2762   15.9454 C   0  0  0  0  0  0
   43.8453   16.4863   16.3759 C   0  0  0  0  0  0
   44.4770   16.4775   17.4519 O   0  0  0  0  0  0
   43.7838   17.5156   15.6663 O   0  5  0  0  0  0
   39.9524   16.0241   14.5140 H   0  0  0  0  0  0
   40.9426   17.3826   15.0988 H   0  0  0  0  0  0
   43.5298   11.2802   17.7195 H   0  0  0  0  0  0
   43.1224    8.9048   18.2025 H   0  0  0  0  0  0
   41.4685    7.6107   16.9247 H   0  0  0  0  0  0
   39.4048    9.0101   14.1228 H   0  0  0  0  0  0
   38.8907    7.0469   15.9173 H   0  0  0  0  0  0
   40.5948    6.6759   15.5614 H   0  0  0  0  0  0
   40.0954    6.5431   13.2169 H   0  0  0  0  0  0
   38.1685    8.1594   13.2065 H   0  0  0  0  0  0
   37.7835    6.6833   12.3618 H   0  0  0  0  0  0
   36.9273    7.4136   15.2063 H   0  0  0  0  0  0
   35.8841    7.2999   13.8137 H   0  0  0  0  0  0
   35.7243    5.2586   15.2742 H   0  0  0  0  0  0
   36.2497    4.8630   13.6593 H   0  0  0  0  0  0
   38.0362    5.1183   16.1293 H   0  0  0  0  0  0
   37.6512    3.6423   15.2845 H   0  0  0  0  0  0
   38.8924    4.3881   13.2847 H   0  0  0  0  0  0
   39.9356    4.5017   14.6773 H   0  0  0  0  0  0
   40.4024   11.1894   14.7766 H   0  0  0  0  0  0
  1  2  2  0  0  0
  2  3  1  0  0  0
  2  4  1  0  0  0
  4  5  1  0  0  0
  4 29  1  0  0  0
  4 30  1  0  0  0
  5  6  1  0  0  0
  6 25  2  0  0  0
  6  7  1  0  0  0
  7  8  1  0  0  0
  7  9  2  0  0  0
  9 10  1  0  0  0
  9 24  1  0  0  0
 10 23  1  0  0  0
 10 11  2  0  0  0
 11 12  1  0  0  0
 11 31  1  0  0  0
 12 13  2  0  0  0
 12 32  1  0  0  0
 13 14  1  0  0  0
 13 33  1  0  0  0
 14 15  1  0  0  0
 14 23  2  0  0  0
 15 16  1  0  0  0
 15 34  1  0  0  0
 16 17  1  0  0  0
 16 35  1  0  0  0
 16 36  1  0  0  0
 17 22  1  0  0  0
 17 18  1  0  0  0
 17 37  1  0  0  0
 18 19  1  0  0  0
 18 38  1  0  0  0
 18 39  1  0  0  0
 19 20  1  0  0  0
 19 40  1  0  0  0
 19 41  1  0  0  0
 20 21  1  0  0  0
 20 42  1  0  0  0
 20 43  1  0  0  0
 21 22  1  0  0  0
 21 44  1  0  0  0
 21 45  1  0  0  0
 22 46  1  0  0  0
 22 47  1  0  0  0
 23 48  1  0  0  0
 24 25  1  0  0  0
 25 26  1  0  0  0
 26 27  2  0  0  0
 26 28  1  0  0  0
M  CHG  2   3  -1  28  -1
M  END
> <i_m_stars>
2

> <s_m_entry_id>
479

> <s_m_entry_name>
PTP1B_23474.1

> <r_user_dG.exp>
-9.11205847715563

> <r_m_Molecular_weight>
466.3591

> <s_m_Source_Path>
C:\Users\yujiethinkpad\Desktop\05A\PTP1B

> <s_m_Source_File>
PTP1B_23474.sdf

> <i_m_Source_File_Index>
1

> <s_m_job_name>
align_ligands_7103

> <i_phase_Input_Structure_Number>
3

> <i_phase_Structure_Number>
3

> <r_phase_Similarity_to_Reference>
0.86198113826089

> <i_phase_Reference_Structure>
1

> <s_phase_Alignment_Method>
snapped core

> <s_phase_Alignment_Reason>


> <s_phase_Core_SMARTS>
a1aaaa1-a2aaaaa2

> <s_f3d_frozen_atoms>
24 25 6 7 9 10 23 14 13 12 11 8 48 33 32 31

> <s_m_subgroup_title>
align_ligands_7103

> <s_m_subgroupid>
align_ligands_7103

> <b_m_subgroup_collapsed>
0

$$$$
