23483
                    3D
 Schrodinger Suite 2021-2.
 57 60  0  0  1  0            999 V2000
   41.2140   17.6826   12.1192 O   0  0  0  0  0  0
   40.3624   17.5311   13.0273 C   0  0  0  0  0  0
   39.2025   17.9973   12.9840 O   0  5  0  0  0  0
   40.7591   16.7115   14.2597 C   0  0  0  0  0  0
   41.9403   15.9721   13.9773 O   0  0  0  0  0  0
   42.2861   15.0511   14.9026 C   0  0  0  0  0  0
   41.8500   13.7084   14.8730 C   0  0  0  0  0  0
   40.7360   13.2366   13.4415 Br  0  0  0  0  0  0
   42.2857   12.8787   15.8795 C   0  0  0  0  0  0
   42.0143   11.4513   16.1790 C   0  0  0  0  0  0
   42.7698   10.7617   17.1532 C   0  0  0  0  0  0
   42.5599    9.3940   17.4210 C   0  0  0  0  0  0
   41.6244    8.6526   16.6850 C   0  0  0  0  0  0
   40.9142    9.2859   15.6588 C   0  0  0  0  0  0
   40.4542    8.4867   14.6017 N   0  0  0  0  0  0
   39.1351    7.9031   14.4230 C   0  0  0  0  0  0
   39.2890    6.5851   13.6193 C   0  0  0  0  0  0
   37.9406    5.9172   13.3177 C   0  0  0  0  0  0
   37.1268    5.7279   14.6072 N   0  0  3  0  0  0
   36.8027    4.3549   15.1169 S   0  0  0  0  0  0
   37.7887    3.4149   14.5612 O   0  0  0  0  0  0
   36.6024    4.4543   16.5708 O   0  0  0  0  0  0
   35.2038    4.0433   14.3803 C   0  0  0  0  0  0
   34.1183    4.8774   14.7138 C   0  0  0  0  0  0
   32.8593    4.6505   14.1240 C   0  0  0  0  0  0
   32.6915    3.5955   13.2045 C   0  0  0  0  0  0
   33.7817    2.7661   12.8719 C   0  0  0  0  0  0
   35.0430    2.9901   13.4578 C   0  0  0  0  0  0
   36.9791    7.0476   15.3852 C   0  0  0  0  0  0
   38.3513    7.6671   15.7142 C   0  0  0  0  0  0
   41.0442   10.6812   15.4778 C   0  0  0  0  0  0
   43.3742   13.8144   16.8867 S   0  0  0  0  0  0
   43.1368   15.2762   15.9454 C   0  0  0  0  0  0
   43.8453   16.4863   16.3759 C   0  0  0  0  0  0
   44.4770   16.4775   17.4519 O   0  0  0  0  0  0
   43.7838   17.5156   15.6663 O   0  5  0  0  0  0
   39.9204   16.0862   14.5731 H   0  0  0  0  0  0
   40.9556   17.4011   15.0806 H   0  0  0  0  0  0
   43.5347   11.2786   17.7143 H   0  0  0  0  0  0
   43.1235    8.9049   18.2017 H   0  0  0  0  0  0
   41.4717    7.6103   16.9252 H   0  0  0  0  0  0
   41.0904    8.3138   13.8367 H   0  0  0  0  0  0
   38.5688    8.6112   13.8181 H   0  0  0  0  0  0
   39.8200    6.7751   12.6865 H   0  0  0  0  0  0
   39.9113    5.8905   14.1833 H   0  0  0  0  0  0
   37.3511    6.5182   12.6253 H   0  0  0  0  0  0
   38.0949    4.9588   12.8220 H   0  0  0  0  0  0
   34.2511    5.6854   15.4182 H   0  0  0  0  0  0
   32.0226    5.2848   14.3771 H   0  0  0  0  0  0
   31.7254    3.4214   12.7542 H   0  0  0  0  0  0
   33.6508    1.9568   12.1689 H   0  0  0  0  0  0
   35.8761    2.3508   13.2048 H   0  0  0  0  0  0
   36.3735    7.7214   14.7792 H   0  0  0  0  0  0
   36.4076    6.8732   16.2968 H   0  0  0  0  0  0
   38.9222    7.0057   16.3657 H   0  0  0  0  0  0
   38.2389    8.6035   16.2605 H   0  0  0  0  0  0
   40.3969   11.2070   14.7990 H   0  0  0  0  0  0
  1  2  2  0  0  0
  2  3  1  0  0  0
  2  4  1  0  0  0
  4  5  1  0  0  0
  4 37  1  0  0  0
  4 38  1  0  0  0
  5  6  1  0  0  0
  6 33  2  0  0  0
  6  7  1  0  0  0
  7  8  1  0  0  0
  7  9  2  0  0  0
  9 10  1  0  0  0
  9 32  1  0  0  0
 10 31  1  0  0  0
 10 11  2  0  0  0
 11 12  1  0  0  0
 11 39  1  0  0  0
 12 13  2  0  0  0
 12 40  1  0  0  0
 13 14  1  0  0  0
 13 41  1  0  0  0
 14 15  1  0  0  0
 14 31  2  0  0  0
 15 16  1  0  0  0
 15 42  1  0  0  0
 16 30  1  0  0  0
 16 17  1  0  0  0
 16 43  1  0  0  0
 17 18  1  0  0  0
 17 44  1  0  0  0
 17 45  1  0  0  0
 18 19  1  0  0  0
 18 46  1  0  0  0
 18 47  1  0  0  0
 19 20  1  0  0  0
 19 29  1  0  0  0
 20 21  2  0  0  0
 20 22  2  0  0  0
 20 23  1  0  0  0
 23 28  1  0  0  0
 23 24  2  0  0  0
 24 25  1  0  0  0
 24 48  1  0  0  0
 25 26  2  0  0  0
 25 49  1  0  0  0
 26 27  1  0  0  0
 26 50  1  0  0  0
 27 28  2  0  0  0
 27 51  1  0  0  0
 28 52  1  0  0  0
 29 30  1  0  0  0
 29 53  1  0  0  0
 29 54  1  0  0  0
 30 55  1  0  0  0
 30 56  1  0  0  0
 31 57  1  0  0  0
 32 33  1  0  0  0
 33 34  1  0  0  0
 34 35  2  0  0  0
 34 36  1  0  0  0
M  CHG  2   3  -1  36  -1
M  END
> <i_m_stars>
2

> <s_m_entry_id>
486

> <s_m_entry_name>
PTP1B_23483.1

> <r_user_dG.exp>
-9.8746881466035

> <r_m_Molecular_weight>
593.48117

> <s_m_Source_Path>
C:\Users\yujiethinkpad\Desktop\05A\PTP1B

> <s_m_Source_File>
PTP1B_23483.sdf

> <i_m_Source_File_Index>
1

> <s_m_job_name>
align_ligands_7103

> <i_phase_Input_Structure_Number>
10

> <i_phase_Structure_Number>
10

> <r_phase_Similarity_to_Reference>
0.742915362619449

> <i_phase_Reference_Structure>
1

> <s_phase_Alignment_Method>
snapped core

> <s_phase_Alignment_Reason>


> <s_phase_Core_SMARTS>
a1aaaa1-a2aa(aaa2)AA3AAAAA3

> <s_f3d_frozen_atoms>
32 33 6 7 9 10 31 14 13 12 11 15 16 17 18 19 29 30 8 57 41 40 39 42 43 44 45 46 47 53 54 55 56

> <s_m_subgroup_title>
align_ligands_7103

> <s_m_subgroupid>
align_ligands_7103

> <b_m_subgroup_collapsed>
0

$$$$
