23485
                    3D
 Schrodinger Suite 2021-2.
 63 66  0  0  1  0            999 V2000
   40.9187   13.2493   13.7903 C   0  0  0  0  0  0
   41.8500   13.7084   14.8730 C   0  0  0  0  0  0
   42.2861   15.0511   14.9026 C   0  0  0  0  0  0
   41.9403   15.9721   13.9773 O   0  0  0  0  0  0
   40.7591   16.7115   14.2597 C   0  0  0  0  0  0
   40.3624   17.5311   13.0273 C   0  0  0  0  0  0
   41.2140   17.6826   12.1192 O   0  0  0  0  0  0
   39.2025   17.9973   12.9840 O   0  5  0  0  0  0
   43.1368   15.2762   15.9454 C   0  0  0  0  0  0
   43.8453   16.4863   16.3759 C   0  0  0  0  0  0
   44.4770   16.4775   17.4519 O   0  0  0  0  0  0
   43.7838   17.5156   15.6663 O   0  5  0  0  0  0
   43.3742   13.8144   16.8867 S   0  0  0  0  0  0
   42.2857   12.8787   15.8795 C   0  0  0  0  0  0
   42.0143   11.4513   16.1790 C   0  0  0  0  0  0
   42.7698   10.7617   17.1532 C   0  0  0  0  0  0
   42.5599    9.3940   17.4210 C   0  0  0  0  0  0
   41.6244    8.6526   16.6850 C   0  0  0  0  0  0
   40.9142    9.2859   15.6588 C   0  0  0  0  0  0
   40.4542    8.4867   14.6017 N   0  0  0  0  0  0
   39.1351    7.9031   14.4230 C   0  0  0  0  0  0
   39.2890    6.5851   13.6193 C   0  0  0  0  0  0
   37.9406    5.9172   13.3177 C   0  0  0  0  0  0
   37.1268    5.7279   14.6072 N   0  0  2  0  0  0
   35.5661    5.0450   14.2530 S   0  0  0  0  0  0
   35.5434    4.7054   12.8260 O   0  0  0  0  0  0
   34.5523    5.9194   14.8527 O   0  0  0  0  0  0
   35.5724    3.5194   15.1699 C   0  0  0  0  0  0
   36.8783    3.3766   15.8940 C   0  0  0  0  0  0
   38.0330    3.9378   15.3618 C   0  0  0  0  0  0
   39.2429    3.8056   16.0327 C   0  0  0  0  0  0
   39.2982    3.1120   17.2359 C   0  0  0  0  0  0
   38.1435    2.5508   17.7681 C   0  0  0  0  0  0
   36.9335    2.6831   17.0972 C   0  0  0  0  0  0
   36.9791    7.0476   15.3852 C   0  0  0  0  0  0
   38.3513    7.6671   15.7142 C   0  0  0  0  0  0
   41.0442   10.6812   15.4778 C   0  0  0  0  0  0
   40.7159   14.0769   13.1105 H   0  0  0  0  0  0
   41.3792   12.4301   13.2382 H   0  0  0  0  0  0
   39.9844   12.9075   14.2356 H   0  0  0  0  0  0
   39.9523   16.0241   14.5140 H   0  0  0  0  0  0
   40.9425   17.3827   15.0987 H   0  0  0  0  0  0
   43.5283   11.2818   17.7195 H   0  0  0  0  0  0
   43.1228    8.9045   18.2020 H   0  0  0  0  0  0
   41.4717    7.6106   16.9265 H   0  0  0  0  0  0
   41.1247    8.2301   13.8913 H   0  0  0  0  0  0
   38.5688    8.6112   13.8181 H   0  0  0  0  0  0
   39.8200    6.7751   12.6865 H   0  0  0  0  0  0
   39.9113    5.8905   14.1833 H   0  0  0  0  0  0
   37.3511    6.5182   12.6253 H   0  0  0  0  0  0
   38.0949    4.9588   12.8220 H   0  0  0  0  0  0
   34.7556    3.5259   15.8916 H   0  0  0  0  0  0
   35.4442    2.6824   14.4835 H   0  0  0  0  0  0
   37.9900    4.4778   14.4250 H   0  0  0  0  0  0
   40.1419    4.2425   15.6183 H   0  0  0  0  0  0
   40.2402    3.0091   17.7582 H   0  0  0  0  0  0
   38.1865    2.0109   18.7048 H   0  0  0  0  0  0
   36.0345    2.2462   17.5116 H   0  0  0  0  0  0
   36.3735    7.7214   14.7792 H   0  0  0  0  0  0
   36.4076    6.8732   16.2968 H   0  0  0  0  0  0
   38.9222    7.0057   16.3657 H   0  0  0  0  0  0
   38.2389    8.6035   16.2605 H   0  0  0  0  0  0
   40.4040   11.1992   14.7862 H   0  0  0  0  0  0
  1  2  1  0  0  0
  1 38  1  0  0  0
  1 39  1  0  0  0
  1 40  1  0  0  0
  2 14  2  0  0  0
  2  3  1  0  0  0
  3  4  1  0  0  0
  3  9  2  0  0  0
  4  5  1  0  0  0
  5  6  1  0  0  0
  5 41  1  0  0  0
  5 42  1  0  0  0
  6  7  2  0  0  0
  6  8  1  0  0  0
  9 10  1  0  0  0
  9 13  1  0  0  0
 10 11  2  0  0  0
 10 12  1  0  0  0
 13 14  1  0  0  0
 14 15  1  0  0  0
 15 37  1  0  0  0
 15 16  2  0  0  0
 16 17  1  0  0  0
 16 43  1  0  0  0
 17 18  2  0  0  0
 17 44  1  0  0  0
 18 19  1  0  0  0
 18 45  1  0  0  0
 19 20  1  0  0  0
 19 37  2  0  0  0
 20 21  1  0  0  0
 20 46  1  0  0  0
 21 36  1  0  0  0
 21 22  1  0  0  0
 21 47  1  0  0  0
 22 23  1  0  0  0
 22 48  1  0  0  0
 22 49  1  0  0  0
 23 24  1  0  0  0
 23 50  1  0  0  0
 23 51  1  0  0  0
 24 25  1  0  0  0
 24 35  1  0  0  0
 25 26  2  0  0  0
 25 27  2  0  0  0
 25 28  1  0  0  0
 28 29  1  0  0  0
 28 52  1  0  0  0
 28 53  1  0  0  0
 29 34  1  0  0  0
 29 30  2  0  0  0
 30 31  1  0  0  0
 30 54  1  0  0  0
 31 32  2  0  0  0
 31 55  1  0  0  0
 32 33  1  0  0  0
 32 56  1  0  0  0
 33 34  2  0  0  0
 33 57  1  0  0  0
 34 58  1  0  0  0
 35 36  1  0  0  0
 35 59  1  0  0  0
 35 60  1  0  0  0
 36 61  1  0  0  0
 36 62  1  0  0  0
 37 63  1  0  0  0
M  CHG  2   8  -1  12  -1
M  END
> <i_m_stars>
2

> <s_m_entry_id>
488

> <s_m_entry_name>
PTP1B_23485.1

> <r_user_dG.exp>
-11.0135614094467

> <r_m_Molecular_weight>
542.63432

> <s_m_Source_Path>
C:\Users\yujiethinkpad\Desktop\05A\PTP1B

> <s_m_Source_File>
PTP1B_23485.sdf

> <i_m_Source_File_Index>
1

> <s_m_job_name>
align_ligands_7103

> <i_phase_Input_Structure_Number>
12

> <i_phase_Structure_Number>
12

> <r_phase_Similarity_to_Reference>
0.682253070195191

> <i_phase_Reference_Structure>
1

> <s_phase_Alignment_Method>
snapped core

> <s_phase_Alignment_Reason>


> <s_phase_Core_SMARTS>
a1aaaa1-a2aa(aaa2)AA3AAAAA3

> <s_f3d_frozen_atoms>
13 9 3 2 14 15 37 19 18 17 16 20 21 22 23 24 35 36 63 45 44 43 46 47 48 49 50 51 59 60 61 62

> <s_m_subgroup_title>
align_ligands_7103

> <s_m_subgroupid>
align_ligands_7103

> <b_m_subgroup_collapsed>
0

$$$$
