ejm_44
                    3D
 Schrodinger Suite 2021-2.
 41 42  0  0  1  0            999 V2000
   -1.7434   20.9519  -27.9088 C   0  0  0  0  0  0
   -3.0781   21.1495  -27.5404 C   0  0  0  0  0  0
   -3.7921   22.2097  -28.1218 C   0  0  0  0  0  0
   -3.2114   23.0883  -29.0671 C   0  0  0  0  0  0
   -1.8531   22.9275  -29.3701 C   0  0  0  0  0  0
   -1.1503   21.8429  -28.8267 C   0  0  0  0  0  0
   -1.0066   24.0992  -30.3082 Cl  0  0  0  0  0  0
   -4.0034   24.2172  -29.6574 C   0  0  0  0  0  0
   -4.1348   25.3294  -29.1550 O   0  0  0  0  0  0
   -4.5650   23.8755  -30.8174 N   0  0  0  0  0  0
   -5.3976   24.7439  -31.6446 C   0  0  0  0  0  0
   -6.2613   24.2019  -32.5962 C   0  0  0  0  0  0
   -7.0466   25.0505  -33.3745 C   0  0  0  0  0  0
   -7.0029   26.4001  -33.2407 N   0  0  0  0  0  0
   -6.1574   26.9148  -32.3101 C   0  0  0  0  0  0
   -5.3429   26.1281  -31.4968 C   0  0  0  0  0  0
   -6.1275   28.3691  -32.1841 N   0  0  0  0  0  0
   -5.6816   29.0455  -31.1251 C   0  0  0  0  0  0
   -5.2386   28.4957  -30.1210 O   0  0  0  0  0  0
   -5.7922   30.5282  -31.3234 C   0  0  0  0  0  0
   -5.3330   22.5263  -27.5093 Cl  0  0  0  0  0  0
   -6.3984   30.7633  -32.7177 C   0  0  0  0  0  0
   -1.1841   20.1269  -27.4914 H   0  0  0  0  0  0
   -3.5422   20.4919  -26.8197 H   0  0  0  0  0  0
   -0.1237   21.7000  -29.1314 H   0  0  0  0  0  0
   -4.4832   22.9741  -31.2656 H   0  0  0  0  0  0
   -6.3224   23.1305  -32.7304 H   0  0  0  0  0  0
   -7.7231   24.6471  -34.1185 H   0  0  0  0  0  0
   -4.6849   26.5830  -30.7690 H   0  0  0  0  0  0
   -6.4992   28.7800  -33.0285 H   0  0  0  0  0  0
   -4.3734   31.1144  -31.2216 C   0  0  0  0  0  0
   -6.7068   31.0750  -30.2137 C   0  0  0  0  0  0
   -3.9277   30.9043  -30.2486 H   0  0  0  0  0  0
   -3.7145   30.6888  -31.9793 H   0  0  0  0  0  0
   -4.3777   32.1967  -31.3568 H   0  0  0  0  0  0
   -7.3844   30.3050  -32.8025 H   0  0  0  0  0  0
   -6.5085   31.8273  -32.9311 H   0  0  0  0  0  0
   -5.7715   30.3322  -33.4991 H   0  0  0  0  0  0
   -6.2980   30.8643  -29.2248 H   0  0  0  0  0  0
   -6.8331   32.1553  -30.2963 H   0  0  0  0  0  0
   -7.6977   30.6216  -30.2589 H   0  0  0  0  0  0
  1  2  1  0  0  0
  1  6  2  0  0  0
  1 23  1  0  0  0
  2  3  2  0  0  0
  2 24  1  0  0  0
  3  4  1  0  0  0
  3 21  1  0  0  0
  4  5  2  0  0  0
  4  8  1  0  0  0
  5  6  1  0  0  0
  5  7  1  0  0  0
  6 25  1  0  0  0
  8  9  2  0  0  0
  8 10  1  0  0  0
 10 11  1  0  0  0
 10 26  1  0  0  0
 11 12  1  0  0  0
 11 16  2  0  0  0
 12 13  2  0  0  0
 12 27  1  0  0  0
 13 14  1  0  0  0
 13 28  1  0  0  0
 14 15  2  0  0  0
 15 16  1  0  0  0
 15 17  1  0  0  0
 16 29  1  0  0  0
 17 18  1  0  0  0
 17 30  1  0  0  0
 18 19  2  0  0  0
 18 20  1  0  0  0
 20 22  1  0  0  0
 20 31  1  0  0  0
 20 32  1  0  0  0
 22 36  1  0  0  0
 22 37  1  0  0  0
 22 38  1  0  0  0
 31 33  1  0  0  0
 31 34  1  0  0  0
 31 35  1  0  0  0
 32 39  1  0  0  0
 32 40  1  0  0  0
 32 41  1  0  0  0
M  END
> <s_m_entry_id>
776

> <s_m_entry_name>
Tyk2_ejm_44.1

> <r_user_dG.exp>
-7.42

> <r_m_Molecular_weight>
366.24994

> <s_m_Source_Path>
C:\Users\yujiethinkpad\Desktop\05A\Tyk2

> <s_m_Source_File>
Tyk2_ejm_44.sdf

> <i_m_Source_File_Index>
1

> <s_m_job_name>
align_ligands_0662

> <i_phase_Input_Structure_Number>
11

> <i_phase_Structure_Number>
11

> <r_phase_Similarity_to_Reference>
0.835866998884562

> <i_phase_Reference_Structure>
16

> <s_phase_Alignment_Method>
snapped core

> <s_phase_Alignment_Reason>


> <s_phase_Core_SMARTS>
a1aaaaa1

> <s_f3d_frozen_atoms>
4 5 6 1 2 3 7 25 23 24 21

> <s_fepmapper_entryid>
11

> <i_fepmapper_bias>
0

> <i_fepmapper_affinity>
1

> <r_fepmapper_exp_dG>
-7.42

> <i_fepmapper_unit>
1

> <s_m_subgroup_title>
align_ligands_0662

> <s_m_subgroupid>
align_ligands_0662

> <b_m_subgroup_collapsed>
0

$$$$
