20670(2qbs)
                    3D
 Schrodinger Suite 2021-2.
 45 47  0  0  1  0            999 V2000
   43.3823   13.8671   16.7369 S   0  0  0  0  0  0
   43.1476   15.2775   15.7311 C   0  0  0  0  0  0
   42.3691   15.0164   14.6386 C   0  0  0  0  0  0
   41.8220   13.7013   14.7495 C   0  0  0  0  0  0
   42.2873   12.9267   15.7821 C   0  0  0  0  0  0
   43.8752   16.4819   16.1316 C   0  0  0  0  0  0
   44.4812   16.4978   17.2220 O   0  0  0  0  0  0
   43.8704   17.4835   15.3844 O   0  5  0  0  0  0
   42.0282   11.5206   16.1176 C   0  0  0  0  0  0
   40.7476   10.9633   15.9234 C   0  0  0  0  0  0
   40.4853    9.5946   16.1112 C   0  0  0  0  0  0
   41.5137    8.7806   16.6327 C   0  0  0  0  0  0
   42.7822    9.3250   16.8900 C   0  0  0  0  0  0
   43.0450   10.6762   16.6049 C   0  0  0  0  0  0
   40.6969   12.9735   13.4518 Br  0  0  0  0  0  0
   42.3667   15.8782   13.5781 O   0  0  0  0  0  0
   41.2080   16.1643   12.7922 C   0  0  0  0  0  0
   40.3207   17.2139   13.4354 C   0  0  0  0  0  0
   39.7110   18.0096   12.6896 O   0  5  0  0  0  0
   40.2567   17.2084   14.6736 O   0  0  0  0  0  0
   39.2248    9.1031   15.7150 N   0  0  0  0  0  0
   38.9381    7.6700   15.6600 C   0  0  0  0  0  0
   37.4256    7.3367   15.6268 C   0  0  0  0  0  0
   36.8490    6.9324   14.2622 C   0  0  0  0  0  0
   37.7304    5.8997   13.5490 C   0  0  0  0  0  0
   39.1036    6.5250   13.3090 C   0  0  0  0  0  0
   39.7874    6.8737   14.6347 C   0  0  0  0  0  0
   39.9473   11.5913   15.5699 H   0  0  0  0  0  0
   41.3613    7.7286   16.8184 H   0  0  0  0  0  0
   43.5689    8.6927   17.2737 H   0  0  0  0  0  0
   44.0395   11.0639   16.7683 H   0  0  0  0  0  0
   40.6059   15.3126   12.5134 H   0  0  0  0  0  0
   41.5697   16.5709   11.8479 H   0  0  0  0  0  0
   38.6131    9.7274   15.2094 H   0  0  0  0  0  0
   39.2547    7.3224   16.6438 H   0  0  0  0  0  0
   37.2706    6.4879   16.2944 H   0  0  0  0  0  0
   36.8410    8.1496   16.0588 H   0  0  0  0  0  0
   35.8419    6.5347   14.3911 H   0  0  0  0  0  0
   36.7478    7.8202   13.6364 H   0  0  0  0  0  0
   37.8183    4.9882   14.1426 H   0  0  0  0  0  0
   37.2801    5.6166   12.5969 H   0  0  0  0  0  0
   39.7344    5.8386   12.7429 H   0  0  0  0  0  0
   39.0062    7.4250   12.7006 H   0  0  0  0  0  0
   40.7366    7.3678   14.4269 H   0  0  0  0  0  0
   40.0622    5.9285   15.1061 H   0  0  0  0  0  0
  1  2  1  0  0  0
  1  5  1  0  0  0
  2  3  2  0  0  0
  2  6  1  0  0  0
  3  4  1  0  0  0
  3 16  1  0  0  0
  4  5  2  0  0  0
  4 15  1  0  0  0
  5  9  1  0  0  0
  6  7  2  0  0  0
  6  8  1  0  0  0
  9 10  1  0  0  0
  9 14  2  0  0  0
 10 11  2  0  0  0
 10 28  1  0  0  0
 11 12  1  0  0  0
 11 21  1  0  0  0
 12 13  2  0  0  0
 12 29  1  0  0  0
 13 14  1  0  0  0
 13 30  1  0  0  0
 14 31  1  0  0  0
 16 17  1  0  0  0
 17 18  1  0  0  0
 17 32  1  0  0  0
 17 33  1  0  0  0
 18 19  1  0  0  0
 18 20  2  0  0  0
 21 22  1  0  0  0
 21 34  1  0  0  0
 22 23  1  0  0  0
 22 27  1  0  0  0
 22 35  1  0  0  0
 23 24  1  0  0  0
 23 36  1  0  0  0
 23 37  1  0  0  0
 24 25  1  0  0  0
 24 38  1  0  0  0
 24 39  1  0  0  0
 25 26  1  0  0  0
 25 40  1  0  0  0
 25 41  1  0  0  0
 26 27  1  0  0  0
 26 42  1  0  0  0
 26 43  1  0  0  0
 27 44  1  0  0  0
 27 45  1  0  0  0
M  CHG  2   8  -1  19  -1
M  END
> <i_m_stars>
0

> <s_m_entry_id>
454

> <s_m_entry_name>
Structure364

> <s_m_Source_Path>
C:\Users\yujiethinkpad\Desktop\05A\p38

> <s_m_Source_File>
2qbs.pdb

> <i_m_Source_File_Index>
1

> <s_pdb_PDB_TITLE>
CRYSTAL STRUCTURE OF PTP1B-INHIBITOR COMPLEX

> <s_pdb_PDB_ID>
2QBS

> <r_pdb_PDB_CRYST1_a>
88.458

> <r_pdb_PDB_CRYST1_b>
88.458

> <r_pdb_PDB_CRYST1_c>
104.358

> <r_pdb_PDB_CRYST1_alpha>
90

> <r_pdb_PDB_CRYST1_beta>
90

> <r_pdb_PDB_CRYST1_gamma>
120

> <s_pdb_PDB_CRYST1_Space_Group>
P 31 2 1

> <i_pdb_PDB_CRYST1_z>
6

> <s_pdb_PDB_CLASSIFICATION>
HYDROLASE

> <s_pdb_PDB_DEPOSITION_DATE>
18-JUN-07

> <s_pdb_PDB_format_version>
3.30

> <r_pdb_PDB_R>
0.193

> <r_pdb_PDB_Rfree>
0.229

> <r_pdb_PDB_RESOLUTION>
2.1

> <s_pdb_PDB_EXPDTA>
X-RAY DIFFRACTION

> <r_pdb_PDB_EXPDTA_TEMPERATURE>
113

> <r_pdb_PDB_EXPDTA_PH>
7

> <s_pdb_PDB_REMARK_350_Biomolecule_1_Transform_1_Chains>
A

> <s_pdb_PDB_REMARK_350_Biomolecule_1_Transform_1_Matrix_1>
1.000000 0.000000 0.000000   0.000000;0.000000 1.000000 0.000000   0.000000;0.000000 0.000000 1.000000   0.000000

> <s_ppw_entry_id_backup>
361

> <b_ppw_prepared>
1

> <s_ppw_prepared_with_version>
2021-2

> <b_ppw_assigned_bond_orders>
1

> <b_ppw_added_hydrogens>
1

> <b_ppw_treated_metals>
1

> <b_ppw_created_disulfur>
1

> <s_ppw_het_states>
eJztkzFPwzAQhf+KlTkJPvsuNOnGxIoYUYaodCIkHcKAqv53cr7Sl4CYEEz19PTs+LPeyx0zyhr3NK/A4TZ3vs2dyg1kfZHRQxJkgIyQDCmQFSRoEbQIGoPGoDFoDBqDxqAxaAwag8agCWgCmoAmiab6HJWlROeUkqGpEBK08MLS0LAIwVqmK4NxQvfs0rA0GJS0lwImlGE9hJXBOCHJqL4YmnZASdZPQFXWEi0NzZTQoJUX0KNdSujNKiO0Z8UROrT61kZ1uZQNi3dwwmqLK0MWlPQOwTskRSiIUFKEgtQl4I7ZISpDPYOPp9wVrNpjzd9mj1M37d1hP3T99N7o+ejdy67rb17Hfuvui7txeHa78W2YGidb99A4n6X/6C9mrli0+r9D90m+Tt116n49db6sRB+vU0exjCyb76Omh36ctDpNWhGytj19ACUHdVU=

> <s_m_source_file>
ligprep_co.maegz

> <i_m_source_file_index>
1

> <i_lp_mmshare_version>
54117

> <s_epik_input>
W09IXUMoPU8pW0NIMl1PYzFjKEJyKWMoc2MxQyg9TylbT0hdKS1jMltjSF1jKFtjSF1bY0hdW2NIXTIpW05IXVtDSF0zW0NIMl1bQ0gyXVtDSDJdW0NIMl1bQ0gyXTM=

> <s_epik_cmdline>
J2VwaWtfcHl0aG9uJywgJy1waCcsICc3LjAnLCAnLXRuJywgJzgnLCAnLW1hJywgJzUwMCcsICctaW1hZScsICc8aW5maWxlLm1hZT4nLCAnLW9tYWUnLCAnPG91dGZpbGUubWFlPic=

> <r_epik_Ionization_Penalty>
  0.0069

> <r_epik_Ionization_Penalty_Charging>
  0.0002

> <r_epik_Ionization_Penalty_Neutral>
  0.0066

> <r_epik_State_Penalty>
  0.0049

> <r_epik_Charging_Adjusted_Penalty>
0.00515738986392068

> <i_epik_Tot_Q>
-2

> <i_epik_Tot_abs_Q>
2

> <i_f3d_flags>
0

> <s_lp_Force_Field>
S-OPLS

> <r_lp_Energy>
50.591123

> <b_lp_Chiralities_Consistent>
1

> <s_lp_Variant>
co-1

> <s_m_job_name>
align_ligands_6977

> <s_i_glide_gridfile>
glide-grid_PTP1B

> <i_i_glide_lignum>
1

> <i_i_glide_rotatable_bonds>
7

> <r_i_docking_score>
-6.63569034859329

> <r_i_glide_ligand_efficiency>
-0.245766309207159

> <r_i_glide_ligand_efficiency_sa>
-0.737298926811471

> <r_i_glide_ligand_efficiency_ln>
-1.54467931524721

> <r_i_glide_gscore>
-6.64059034859329

> <r_i_glide_lipo>
-2.29333179693731

> <r_i_glide_hbond>
-0.610190642324347

> <r_i_glide_metal>
0

> <r_i_glide_rewards>
-0.617296822777257

> <r_i_glide_evdw>
-33.8927421569824

> <r_i_glide_ecoul>
-12.3195962905884

> <r_i_glide_erotb>
0.490342647462805

> <r_i_glide_esite>
-0.0675371825797992

> <r_i_glide_emodel>
-54.0151477297801

> <r_i_glide_energy>
-46.2123384475708

> <r_i_glide_einternal>
56.6499404907227

> <i_i_glide_confnum>
304

> <i_i_glide_posenum>
32

> <r_i_glide_eff_state_penalty>
0.0049

> <r_glide_shape_similarity>
0.943840503692627

> <i_phase_Input_Structure_Number>
1

> <i_phase_Structure_Number>
1

> <r_phase_Similarity_to_Reference>
1

> <i_phase_Reference_Structure>
1

> <s_phase_Alignment_Method>


> <s_phase_Alignment_Reason>


> <s_phase_Core_SMARTS>


> <r_m_RMSD_362>
0.697682861046316

> <r_m_RMS_In_Place_362>
0.708732233725069

> <s_m_subgroup_title>
align_ligands_6977

> <s_m_subgroupid>
align_ligands_6977

> <b_m_subgroup_collapsed>
0

$$$$
