23469
                    3D
 Schrodinger Suite 2021-2.
 41 43  0  0  1  0            999 V2000
   40.2567   17.2084   14.6736 O   0  0  0  0  0  0
   40.3207   17.2139   13.4354 C   0  0  0  0  0  0
   39.7110   18.0096   12.6896 O   0  5  0  0  0  0
   41.2080   16.1643   12.7922 C   0  0  0  0  0  0
   42.3667   15.8782   13.5781 O   0  0  0  0  0  0
   42.3691   15.0164   14.6386 C   0  0  0  0  0  0
   41.8220   13.7013   14.7495 C   0  0  0  0  0  0
   40.6969   12.9735   13.4518 Br  0  0  0  0  0  0
   42.2873   12.9267   15.7821 C   0  0  0  0  0  0
   42.0282   11.5206   16.1176 C   0  0  0  0  0  0
   43.0450   10.6762   16.6049 C   0  0  0  0  0  0
   42.7822    9.3250   16.8900 C   0  0  0  0  0  0
   41.5137    8.7806   16.6327 C   0  0  0  0  0  0
   40.4853    9.5946   16.1112 C   0  0  0  0  0  0
   39.2020    9.1184   15.7914 N   0  0  0  0  0  0
   38.9220    7.7147   15.5043 C   0  0  0  0  0  0
   38.4551    6.9084   16.3087 O   0  0  0  0  0  0
   39.2119    7.3375   14.0573 C   0  0  0  0  0  0
   40.5259    7.1393   13.6186 C   0  0  0  0  0  0
   40.7786    6.7751   12.2958 C   0  0  0  0  0  0
   39.7209    6.5879   11.4093 C   0  0  0  0  0  0
   38.4094    6.7823   11.8393 C   0  0  0  0  0  0
   38.1540    7.1594   13.1583 C   0  0  0  0  0  0
   40.7476   10.9633   15.9234 C   0  0  0  0  0  0
   43.3823   13.8671   16.7369 S   0  0  0  0  0  0
   43.1476   15.2775   15.7311 C   0  0  0  0  0  0
   43.8752   16.4819   16.1316 C   0  0  0  0  0  0
   44.4812   16.4978   17.2220 O   0  0  0  0  0  0
   43.8704   17.4835   15.3844 O   0  5  0  0  0  0
   40.6389   15.2438   12.6546 H   0  0  0  0  0  0
   41.4975   16.5226   11.8027 H   0  0  0  0  0  0
   44.0414   11.0619   16.7647 H   0  0  0  0  0  0
   43.5580    8.7030   17.3117 H   0  0  0  0  0  0
   41.3510    7.7381   16.8570 H   0  0  0  0  0  0
   38.4924    9.8284   15.6871 H   0  0  0  0  0  0
   41.3599    7.2580   14.2952 H   0  0  0  0  0  0
   41.7955    6.6344   11.9600 H   0  0  0  0  0  0
   39.9159    6.2875   10.3903 H   0  0  0  0  0  0
   37.5891    6.6391   11.1515 H   0  0  0  0  0  0
   37.1337    7.3169   13.4778 H   0  0  0  0  0  0
   39.9320   11.6032   15.6190 H   0  0  0  0  0  0
  1  2  2  0  0  0
  2  3  1  0  0  0
  2  4  1  0  0  0
  4  5  1  0  0  0
  4 30  1  0  0  0
  4 31  1  0  0  0
  5  6  1  0  0  0
  6 26  2  0  0  0
  6  7  1  0  0  0
  7  8  1  0  0  0
  7  9  2  0  0  0
  9 10  1  0  0  0
  9 25  1  0  0  0
 10 24  1  0  0  0
 10 11  2  0  0  0
 11 12  1  0  0  0
 11 32  1  0  0  0
 12 13  2  0  0  0
 12 33  1  0  0  0
 13 14  1  0  0  0
 13 34  1  0  0  0
 14 15  1  0  0  0
 14 24  2  0  0  0
 15 16  1  0  0  0
 15 35  1  0  0  0
 16 17  2  0  0  0
 16 18  1  0  0  0
 18 23  1  0  0  0
 18 19  2  0  0  0
 19 20  1  0  0  0
 19 36  1  0  0  0
 20 21  2  0  0  0
 20 37  1  0  0  0
 21 22  1  0  0  0
 21 38  1  0  0  0
 22 23  2  0  0  0
 22 39  1  0  0  0
 23 40  1  0  0  0
 24 41  1  0  0  0
 25 26  1  0  0  0
 26 27  1  0  0  0
 27 28  2  0  0  0
 27 29  1  0  0  0
M  CHG  2   3  -1  29  -1
M  END
> <i_m_stars>
2

> <s_m_entry_id>
473

> <s_m_entry_name>
PTP1B_23469.1

> <r_user_dG.exp>
-7.72301857947764

> <r_m_Molecular_weight>
474.29474

> <s_m_Source_Path>
C:\Users\yujiethinkpad\Desktop\05A\PTP1B

> <s_m_Source_File>
PTP1B_23469.sdf

> <i_m_Source_File_Index>
1

> <s_m_job_name>
align_ligands_6977

> <i_phase_Input_Structure_Number>
20

> <i_phase_Structure_Number>
20

> <r_phase_Similarity_to_Reference>
0.821305124047539

> <i_phase_Reference_Structure>
1

> <s_phase_Alignment_Method>
snapped core

> <s_phase_Alignment_Reason>


> <s_phase_Core_SMARTS>
a1aaaa1-a2aaaaa2

> <s_f3d_frozen_atoms>
25 26 6 7 9 10 24 14 13 12 11 8 41 34 33 32

> <s_m_subgroup_title>
align_ligands_6977

> <s_m_subgroupid>
align_ligands_6977

> <b_m_subgroup_collapsed>
0

$$$$
