23467
                    3D
 Schrodinger Suite 2021-2.
 31 32  0  0  1  0            999 V2000
   39.1008    7.7234   16.0974 C   0  0  0  0  0  0
   39.2268    9.0796   15.8759 O   0  0  0  0  0  0
   40.4853    9.5946   16.1112 C   0  0  0  0  0  0
   41.5137    8.7806   16.6327 C   0  0  0  0  0  0
   42.7822    9.3250   16.8900 C   0  0  0  0  0  0
   43.0450   10.6762   16.6049 C   0  0  0  0  0  0
   42.0282   11.5206   16.1176 C   0  0  0  0  0  0
   42.2873   12.9267   15.7821 C   0  0  0  0  0  0
   43.3823   13.8671   16.7369 S   0  0  0  0  0  0
   43.1476   15.2775   15.7311 C   0  0  0  0  0  0
   43.8752   16.4819   16.1316 C   0  0  0  0  0  0
   44.4812   16.4978   17.2220 O   0  0  0  0  0  0
   43.8704   17.4835   15.3844 O   0  5  0  0  0  0
   42.3691   15.0164   14.6386 C   0  0  0  0  0  0
   42.3667   15.8782   13.5781 O   0  0  0  0  0  0
   41.2080   16.1643   12.7922 C   0  0  0  0  0  0
   40.3207   17.2139   13.4354 C   0  0  0  0  0  0
   40.2567   17.2084   14.6736 O   0  0  0  0  0  0
   39.7110   18.0096   12.6896 O   0  5  0  0  0  0
   41.8220   13.7013   14.7495 C   0  0  0  0  0  0
   40.6969   12.9735   13.4518 Br  0  0  0  0  0  0
   40.7476   10.9633   15.9234 C   0  0  0  0  0  0
   38.0773    7.4141   15.8855 H   0  0  0  0  0  0
   39.7862    7.1834   15.4441 H   0  0  0  0  0  0
   39.3395    7.5013   17.1375 H   0  0  0  0  0  0
   41.3557    7.7340   16.8439 H   0  0  0  0  0  0
   43.5607    8.7037   17.3074 H   0  0  0  0  0  0
   44.0414   11.0644   16.7569 H   0  0  0  0  0  0
   41.5148   16.5351   11.8141 H   0  0  0  0  0  0
   40.6197   15.2552   12.6679 H   0  0  0  0  0  0
   39.9377   11.6129   15.6245 H   0  0  0  0  0  0
  1  2  1  0  0  0
  1 23  1  0  0  0
  1 24  1  0  0  0
  1 25  1  0  0  0
  2  3  1  0  0  0
  3 22  1  0  0  0
  3  4  2  0  0  0
  4  5  1  0  0  0
  4 26  1  0  0  0
  5  6  2  0  0  0
  5 27  1  0  0  0
  6  7  1  0  0  0
  6 28  1  0  0  0
  7  8  1  0  0  0
  7 22  2  0  0  0
  8 20  2  0  0  0
  8  9  1  0  0  0
  9 10  1  0  0  0
 10 11  1  0  0  0
 10 14  2  0  0  0
 11 12  2  0  0  0
 11 13  1  0  0  0
 14 15  1  0  0  0
 14 20  1  0  0  0
 15 16  1  0  0  0
 16 17  1  0  0  0
 16 29  1  0  0  0
 16 30  1  0  0  0
 17 18  2  0  0  0
 17 19  1  0  0  0
 20 21  1  0  0  0
 22 31  1  0  0  0
M  CHG  2  13  -1  19  -1
M  END
> <i_m_stars>
2

> <s_m_entry_id>
471

> <s_m_entry_name>
PTP1B_23467.1

> <r_user_dG.exp>
-7.34237427296449

> <r_m_Molecular_weight>
385.19723

> <s_m_Source_Path>
C:\Users\yujiethinkpad\Desktop\05A\PTP1B

> <s_m_Source_File>
PTP1B_23467.sdf

> <i_m_Source_File_Index>
1

> <s_m_job_name>
align_ligands_6977

> <i_phase_Input_Structure_Number>
18

> <i_phase_Structure_Number>
18

> <r_phase_Similarity_to_Reference>
0.72292864497414

> <i_phase_Reference_Structure>
1

> <s_phase_Alignment_Method>
snapped core

> <s_phase_Alignment_Reason>


> <s_phase_Core_SMARTS>
a1aaaa1-a2aaaaa2

> <s_f3d_frozen_atoms>
9 10 14 20 8 7 22 3 4 5 6 21 31 26 27 28

> <s_m_subgroup_title>
align_ligands_6977

> <s_m_subgroupid>
align_ligands_6977

> <b_m_subgroup_collapsed>
0

$$$$
