23474
                    3D
 Schrodinger Suite 2021-2.
 48 50  0  0  1  0            999 V2000
   40.2567   17.2084   14.6736 O   0  0  0  0  0  0
   40.3207   17.2139   13.4354 C   0  0  0  0  0  0
   39.7110   18.0096   12.6896 O   0  5  0  0  0  0
   41.2080   16.1643   12.7922 C   0  0  0  0  0  0
   42.3667   15.8782   13.5781 O   0  0  0  0  0  0
   42.3691   15.0164   14.6386 C   0  0  0  0  0  0
   41.8220   13.7013   14.7495 C   0  0  0  0  0  0
   40.6969   12.9735   13.4518 Br  0  0  0  0  0  0
   42.2873   12.9267   15.7821 C   0  0  0  0  0  0
   42.0282   11.5206   16.1176 C   0  0  0  0  0  0
   43.0450   10.6762   16.6049 C   0  0  0  0  0  0
   42.7822    9.3250   16.8900 C   0  0  0  0  0  0
   41.5137    8.7806   16.6327 C   0  0  0  0  0  0
   40.4853    9.5946   16.1112 C   0  0  0  0  0  0
   39.1551    9.0494   15.8567 N   0  0  0  0  0  0
   38.8748    7.6452   16.1420 C   0  0  0  0  0  0
   38.4535    6.9529   14.8797 C   0  0  0  0  0  0
   39.5946    7.0030   13.8437 C   0  0  0  0  0  0
   39.1729    6.3791   12.4981 C   0  0  0  0  0  0
   37.8780    7.0152   11.9537 C   0  0  0  0  0  0
   36.7369    6.9652   12.9897 C   0  0  0  0  0  0
   37.1586    7.5891   14.3353 C   0  0  0  0  0  0
   40.7476   10.9633   15.9234 C   0  0  0  0  0  0
   43.3823   13.8671   16.7369 S   0  0  0  0  0  0
   43.1476   15.2775   15.7311 C   0  0  0  0  0  0
   43.8752   16.4819   16.1316 C   0  0  0  0  0  0
   44.4812   16.4978   17.2220 O   0  0  0  0  0  0
   43.8704   17.4835   15.3844 O   0  5  0  0  0  0
   41.5409   16.5184   11.8165 H   0  0  0  0  0  0
   40.6458   15.2385   12.6703 H   0  0  0  0  0  0
   44.0408   11.0620   16.7680 H   0  0  0  0  0  0
   43.5577    8.7015   17.3100 H   0  0  0  0  0  0
   41.3346    7.7356   16.8400 H   0  0  0  0  0  0
   38.4107    9.6582   15.4742 H   0  0  0  0  0  0
   38.0741    7.5768   16.8785 H   0  0  0  0  0  0
   39.7723    7.1683   16.5358 H   0  0  0  0  0  0
   38.2594    5.9147   15.1558 H   0  0  0  0  0  0
   39.8947    8.0404   13.6844 H   0  0  0  0  0  0
   40.4760    6.4908   14.2334 H   0  0  0  0  0  0
   39.9773    6.4856   11.7682 H   0  0  0  0  0  0
   39.0233    5.3054   12.6270 H   0  0  0  0  0  0
   38.0721    8.0535   11.6776 H   0  0  0  0  0  0
   37.5715    6.5116   11.0353 H   0  0  0  0  0  0
   35.8555    7.4773   12.6000 H   0  0  0  0  0  0
   36.4368    5.9277   13.1489 H   0  0  0  0  0  0
   36.3542    7.4825   15.0651 H   0  0  0  0  0  0
   37.3082    8.6628   14.2064 H   0  0  0  0  0  0
   39.9519   11.6172   15.6052 H   0  0  0  0  0  0
  1  2  2  0  0  0
  2  3  1  0  0  0
  2  4  1  0  0  0
  4  5  1  0  0  0
  4 29  1  0  0  0
  4 30  1  0  0  0
  5  6  1  0  0  0
  6 25  2  0  0  0
  6  7  1  0  0  0
  7  8  1  0  0  0
  7  9  2  0  0  0
  9 10  1  0  0  0
  9 24  1  0  0  0
 10 23  1  0  0  0
 10 11  2  0  0  0
 11 12  1  0  0  0
 11 31  1  0  0  0
 12 13  2  0  0  0
 12 32  1  0  0  0
 13 14  1  0  0  0
 13 33  1  0  0  0
 14 15  1  0  0  0
 14 23  2  0  0  0
 15 16  1  0  0  0
 15 34  1  0  0  0
 16 17  1  0  0  0
 16 35  1  0  0  0
 16 36  1  0  0  0
 17 22  1  0  0  0
 17 18  1  0  0  0
 17 37  1  0  0  0
 18 19  1  0  0  0
 18 38  1  0  0  0
 18 39  1  0  0  0
 19 20  1  0  0  0
 19 40  1  0  0  0
 19 41  1  0  0  0
 20 21  1  0  0  0
 20 42  1  0  0  0
 20 43  1  0  0  0
 21 22  1  0  0  0
 21 44  1  0  0  0
 21 45  1  0  0  0
 22 46  1  0  0  0
 22 47  1  0  0  0
 23 48  1  0  0  0
 24 25  1  0  0  0
 25 26  1  0  0  0
 26 27  2  0  0  0
 26 28  1  0  0  0
M  CHG  2   3  -1  28  -1
M  END
> <i_m_stars>
2

> <s_m_entry_id>
456

> <s_m_entry_name>
PTP1B_23474.1

> <r_user_dG.exp>
-9.11205847715563

> <r_m_Molecular_weight>
466.3591

> <s_m_Source_Path>
C:\Users\yujiethinkpad\Desktop\05A\PTP1B

> <s_m_Source_File>
PTP1B_23474.sdf

> <i_m_Source_File_Index>
1

> <s_m_job_name>
align_ligands_6977

> <i_phase_Input_Structure_Number>
3

> <i_phase_Structure_Number>
3

> <r_phase_Similarity_to_Reference>
0.878430855094227

> <i_phase_Reference_Structure>
1

> <s_phase_Alignment_Method>
snapped core

> <s_phase_Alignment_Reason>


> <s_phase_Core_SMARTS>
a1aaaa1-a2aaaaa2

> <s_f3d_frozen_atoms>
24 25 6 7 9 10 23 14 13 12 11 8 48 33 32 31

> <s_m_subgroup_title>
align_ligands_6977

> <s_m_subgroupid>
align_ligands_6977

> <b_m_subgroup_collapsed>
0

$$$$
