23472
                    3D
 Schrodinger Suite 2021-2.
 42 44  0  0  1  0            999 V2000
   40.2567   17.2084   14.6736 O   0  0  0  0  0  0
   40.3207   17.2139   13.4354 C   0  0  0  0  0  0
   39.7110   18.0096   12.6896 O   0  5  0  0  0  0
   41.2080   16.1643   12.7922 C   0  0  0  0  0  0
   42.3667   15.8782   13.5781 O   0  0  0  0  0  0
   42.3691   15.0164   14.6386 C   0  0  0  0  0  0
   41.8220   13.7013   14.7495 C   0  0  0  0  0  0
   40.6969   12.9735   13.4518 Br  0  0  0  0  0  0
   42.2873   12.9267   15.7821 C   0  0  0  0  0  0
   42.0282   11.5206   16.1176 C   0  0  0  0  0  0
   43.0450   10.6762   16.6049 C   0  0  0  0  0  0
   42.7822    9.3250   16.8900 C   0  0  0  0  0  0
   41.5137    8.7806   16.6327 C   0  0  0  0  0  0
   40.4853    9.5946   16.1112 C   0  0  0  0  0  0
   39.1543    9.0497   15.8597 N   0  0  0  0  0  0
   38.8198    7.3771   16.2033 S   0  0  0  0  0  0
   40.0857    6.7396   16.5816 O   0  0  0  0  0  0
   37.6425    7.3302   17.0774 O   0  0  0  0  0  0
   38.3403    6.7245   14.6182 C   0  0  0  0  0  0
   37.0011    6.7490   14.2349 C   0  0  0  0  0  0
   36.6159    6.2412   12.9973 C   0  0  0  0  0  0
   37.5788    5.7096   12.1478 C   0  0  0  0  0  0
   37.2148    5.2141   10.9441 F   0  0  0  0  0  0
   38.9157    5.6856   12.5315 C   0  0  0  0  0  0
   39.3053    6.1924   13.7681 C   0  0  0  0  0  0
   40.7476   10.9633   15.9234 C   0  0  0  0  0  0
   43.3823   13.8671   16.7369 S   0  0  0  0  0  0
   43.1476   15.2775   15.7311 C   0  0  0  0  0  0
   43.8752   16.4819   16.1316 C   0  0  0  0  0  0
   44.4812   16.4978   17.2220 O   0  0  0  0  0  0
   43.8704   17.4835   15.3844 O   0  5  0  0  0  0
   40.6458   15.2385   12.6703 H   0  0  0  0  0  0
   41.5409   16.5184   11.8165 H   0  0  0  0  0  0
   44.0387   11.0650   16.7723 H   0  0  0  0  0  0
   43.5572    8.7025   17.3121 H   0  0  0  0  0  0
   41.3415    7.7373   16.8463 H   0  0  0  0  0  0
   38.4098    9.6583   15.4772 H   0  0  0  0  0  0
   36.2570    7.1642   14.9011 H   0  0  0  0  0  0
   35.5790    6.2573   12.6942 H   0  0  0  0  0  0
   39.6528    5.2692   11.8601 H   0  0  0  0  0  0
   40.3456    6.1725   14.0639 H   0  0  0  0  0  0
   39.9323   11.5992   15.6097 H   0  0  0  0  0  0
  1  2  2  0  0  0
  2  3  1  0  0  0
  2  4  1  0  0  0
  4  5  1  0  0  0
  4 32  1  0  0  0
  4 33  1  0  0  0
  5  6  1  0  0  0
  6 28  2  0  0  0
  6  7  1  0  0  0
  7  8  1  0  0  0
  7  9  2  0  0  0
  9 10  1  0  0  0
  9 27  1  0  0  0
 10 26  1  0  0  0
 10 11  2  0  0  0
 11 12  1  0  0  0
 11 34  1  0  0  0
 12 13  2  0  0  0
 12 35  1  0  0  0
 13 14  1  0  0  0
 13 36  1  0  0  0
 14 15  1  0  0  0
 14 26  2  0  0  0
 15 16  1  0  0  0
 15 37  1  0  0  0
 16 17  2  0  0  0
 16 18  2  0  0  0
 16 19  1  0  0  0
 19 25  1  0  0  0
 19 20  2  0  0  0
 20 21  1  0  0  0
 20 38  1  0  0  0
 21 22  2  0  0  0
 21 39  1  0  0  0
 22 23  1  0  0  0
 22 24  1  0  0  0
 24 25  2  0  0  0
 24 40  1  0  0  0
 25 41  1  0  0  0
 26 42  1  0  0  0
 27 28  1  0  0  0
 28 29  1  0  0  0
 29 30  2  0  0  0
 29 31  1  0  0  0
M  CHG  2   3  -1  31  -1
M  END
> <i_m_stars>
2

> <s_m_entry_id>
476

> <s_m_entry_name>
PTP1B_23472.1

> <r_user_dG.exp>
-8.64628903953511

> <r_m_Molecular_weight>
528.33742

> <s_m_Source_Path>
C:\Users\yujiethinkpad\Desktop\05A\PTP1B

> <s_m_Source_File>
PTP1B_23472.sdf

> <i_m_Source_File_Index>
1

> <s_m_job_name>
align_ligands_6977

> <i_phase_Input_Structure_Number>
23

> <i_phase_Structure_Number>
23

> <r_phase_Similarity_to_Reference>
0.848696825210025

> <i_phase_Reference_Structure>
1

> <s_phase_Alignment_Method>
snapped core

> <s_phase_Alignment_Reason>


> <s_phase_Core_SMARTS>
a1aaaa1-a2aaaaa2

> <s_f3d_frozen_atoms>
27 28 6 7 9 10 26 14 13 12 11 8 42 36 35 34

> <s_m_subgroup_title>
align_ligands_6977

> <s_m_subgroupid>
align_ligands_6977

> <b_m_subgroup_collapsed>
0

$$$$
