23477
                    3D
 Schrodinger Suite 2021-2.
 43 45  0  0  1  0            999 V2000
   40.2567   17.2084   14.6736 O   0  0  0  0  0  0
   40.3207   17.2139   13.4354 C   0  0  0  0  0  0
   39.7110   18.0096   12.6896 O   0  5  0  0  0  0
   41.2080   16.1643   12.7922 C   0  0  0  0  0  0
   42.3667   15.8782   13.5781 O   0  0  0  0  0  0
   42.3691   15.0164   14.6386 C   0  0  0  0  0  0
   41.8220   13.7013   14.7495 C   0  0  0  0  0  0
   40.6969   12.9735   13.4518 Br  0  0  0  0  0  0
   42.2873   12.9267   15.7821 C   0  0  0  0  0  0
   42.0282   11.5206   16.1176 C   0  0  0  0  0  0
   43.0450   10.6762   16.6049 C   0  0  0  0  0  0
   42.7822    9.3250   16.8900 C   0  0  0  0  0  0
   41.5137    8.7806   16.6327 C   0  0  0  0  0  0
   40.4853    9.5946   16.1112 C   0  0  0  0  0  0
   39.2248    9.1031   15.7150 N   0  0  0  0  0  0
   38.9381    7.6700   15.6600 C   0  0  0  0  0  0
   39.7874    6.8737   14.6347 C   0  0  0  0  0  0
   39.1036    6.5250   13.3090 C   0  0  0  0  0  0
   37.7304    5.8997   13.5490 O   0  0  0  0  0  0
   36.8490    6.9324   14.2622 C   0  0  0  0  0  0
   37.4256    7.3367   15.6268 C   0  0  0  0  0  0
   40.7476   10.9633   15.9234 C   0  0  0  0  0  0
   43.3823   13.8671   16.7369 S   0  0  0  0  0  0
   43.1476   15.2775   15.7311 C   0  0  0  0  0  0
   43.8752   16.4819   16.1316 C   0  0  0  0  0  0
   44.4812   16.4978   17.2220 O   0  0  0  0  0  0
   43.8704   17.4835   15.3844 O   0  5  0  0  0  0
   41.5409   16.5184   11.8165 H   0  0  0  0  0  0
   40.6458   15.2385   12.6703 H   0  0  0  0  0  0
   44.0429   11.0602   16.7591 H   0  0  0  0  0  0
   43.5593    8.7004   17.3053 H   0  0  0  0  0  0
   41.3352    7.7346   16.8356 H   0  0  0  0  0  0
   38.4484    9.7467   15.6630 H   0  0  0  0  0  0
   39.3627    7.2309   16.5628 H   0  0  0  0  0  0
   40.6843    7.4381   14.3800 H   0  0  0  0  0  0
   40.1268    5.9355   15.0739 H   0  0  0  0  0  0
   38.9714    7.4250   12.7085 H   0  0  0  0  0  0
   39.7177    5.8415   12.7228 H   0  0  0  0  0  0
   36.7656    7.8208   13.6363 H   0  0  0  0  0  0
   35.8400    6.5408   14.3911 H   0  0  0  0  0  0
   37.2027    6.5260   16.3206 H   0  0  0  0  0  0
   36.8497    8.1988   15.9634 H   0  0  0  0  0  0
   39.9472   11.6204   15.6207 H   0  0  0  0  0  0
  1  2  2  0  0  0
  2  3  1  0  0  0
  2  4  1  0  0  0
  4  5  1  0  0  0
  4 28  1  0  0  0
  4 29  1  0  0  0
  5  6  1  0  0  0
  6 24  2  0  0  0
  6  7  1  0  0  0
  7  8  1  0  0  0
  7  9  2  0  0  0
  9 10  1  0  0  0
  9 23  1  0  0  0
 10 22  1  0  0  0
 10 11  2  0  0  0
 11 12  1  0  0  0
 11 30  1  0  0  0
 12 13  2  0  0  0
 12 31  1  0  0  0
 13 14  1  0  0  0
 13 32  1  0  0  0
 14 15  1  0  0  0
 14 22  2  0  0  0
 15 16  1  0  0  0
 15 33  1  0  0  0
 16 21  1  0  0  0
 16 17  1  0  0  0
 16 34  1  0  0  0
 17 18  1  0  0  0
 17 35  1  0  0  0
 17 36  1  0  0  0
 18 19  1  0  0  0
 18 37  1  0  0  0
 18 38  1  0  0  0
 19 20  1  0  0  0
 20 21  1  0  0  0
 20 39  1  0  0  0
 20 40  1  0  0  0
 21 41  1  0  0  0
 21 42  1  0  0  0
 22 43  1  0  0  0
 23 24  1  0  0  0
 24 25  1  0  0  0
 25 26  2  0  0  0
 25 27  1  0  0  0
M  CHG  2   3  -1  27  -1
M  END
> <i_m_stars>
2

> <s_m_entry_id>
459

> <s_m_entry_name>
PTP1B_23477.1

> <r_user_dG.exp>
-8.85316590670652

> <r_m_Molecular_weight>
454.30432

> <s_m_Source_Path>
C:\Users\yujiethinkpad\Desktop\05A\PTP1B

> <s_m_Source_File>
PTP1B_23477.sdf

> <i_m_Source_File_Index>
1

> <s_m_job_name>
align_ligands_6977

> <i_phase_Input_Structure_Number>
6

> <i_phase_Structure_Number>
6

> <r_phase_Similarity_to_Reference>
0.94645338720149

> <i_phase_Reference_Structure>
1

> <s_phase_Alignment_Method>
snapped core

> <s_phase_Alignment_Reason>


> <s_phase_Core_SMARTS>
a1aaaa1-a2aa(aaa2)AA3AAAAA3

> <s_f3d_frozen_atoms>
23 24 6 7 9 10 22 14 13 12 11 15 16 21 20 19 18 17 8 43 32 31 30 33 34 41 42 39 40 37 38 35 36

> <s_m_subgroup_title>
align_ligands_6977

> <s_m_subgroupid>
align_ligands_6977

> <b_m_subgroup_collapsed>
0

$$$$
