23471
                    3D
 Schrodinger Suite 2021-2.
 35 36  0  0  1  0            999 V2000
   37.1458    6.3008   15.2009 C   0  0  0  0  0  0
   37.5404    7.6011   15.4414 O   0  0  0  0  0  0
   38.8740    7.7694   15.6376 C   0  0  0  0  0  0
   39.7026    6.8660   15.6123 O   0  0  0  0  0  0
   39.1544    9.0494   15.8604 N   0  0  0  0  0  0
   40.4853    9.5946   16.1112 C   0  0  0  0  0  0
   41.5137    8.7806   16.6327 C   0  0  0  0  0  0
   42.7822    9.3250   16.8900 C   0  0  0  0  0  0
   43.0450   10.6762   16.6049 C   0  0  0  0  0  0
   42.0282   11.5206   16.1176 C   0  0  0  0  0  0
   42.2873   12.9267   15.7821 C   0  0  0  0  0  0
   43.3823   13.8671   16.7369 S   0  0  0  0  0  0
   43.1476   15.2775   15.7311 C   0  0  0  0  0  0
   43.8752   16.4819   16.1316 C   0  0  0  0  0  0
   44.4812   16.4978   17.2220 O   0  0  0  0  0  0
   43.8704   17.4835   15.3844 O   0  5  0  0  0  0
   42.3691   15.0164   14.6386 C   0  0  0  0  0  0
   42.3667   15.8782   13.5781 O   0  0  0  0  0  0
   41.2080   16.1643   12.7922 C   0  0  0  0  0  0
   40.3207   17.2139   13.4354 C   0  0  0  0  0  0
   40.2567   17.2084   14.6736 O   0  0  0  0  0  0
   39.7110   18.0096   12.6896 O   0  5  0  0  0  0
   41.8220   13.7013   14.7495 C   0  0  0  0  0  0
   40.6969   12.9735   13.4518 Br  0  0  0  0  0  0
   40.7476   10.9633   15.9234 C   0  0  0  0  0  0
   36.0657    6.2695   15.0574 H   0  0  0  0  0  0
   37.6423    5.9304   14.3041 H   0  0  0  0  0  0
   37.4175    5.6754   16.0513 H   0  0  0  0  0  0
   38.4820    9.8007   15.8835 H   0  0  0  0  0  0
   41.3613    7.7322   16.8344 H   0  0  0  0  0  0
   43.5616    8.7020   17.3033 H   0  0  0  0  0  0
   44.0427   11.0632   16.7532 H   0  0  0  0  0  0
   41.5148   16.5351   11.8141 H   0  0  0  0  0  0
   40.6197   15.2552   12.6679 H   0  0  0  0  0  0
   39.9428   11.6212   15.6290 H   0  0  0  0  0  0
  1  2  1  0  0  0
  1 26  1  0  0  0
  1 27  1  0  0  0
  1 28  1  0  0  0
  2  3  1  0  0  0
  3  4  2  0  0  0
  3  5  1  0  0  0
  5  6  1  0  0  0
  5 29  1  0  0  0
  6 25  1  0  0  0
  6  7  2  0  0  0
  7  8  1  0  0  0
  7 30  1  0  0  0
  8  9  2  0  0  0
  8 31  1  0  0  0
  9 10  1  0  0  0
  9 32  1  0  0  0
 10 11  1  0  0  0
 10 25  2  0  0  0
 11 23  2  0  0  0
 11 12  1  0  0  0
 12 13  1  0  0  0
 13 14  1  0  0  0
 13 17  2  0  0  0
 14 15  2  0  0  0
 14 16  1  0  0  0
 17 18  1  0  0  0
 17 23  1  0  0  0
 18 19  1  0  0  0
 19 20  1  0  0  0
 19 33  1  0  0  0
 19 34  1  0  0  0
 20 21  2  0  0  0
 20 22  1  0  0  0
 23 24  1  0  0  0
 25 35  1  0  0  0
M  CHG  2  16  -1  22  -1
M  END
> <i_m_stars>
2

> <s_m_entry_id>
475

> <s_m_entry_name>
PTP1B_23471.1

> <r_user_dG.exp>
-7.75184064198728

> <r_m_Molecular_weight>
428.22245

> <s_m_Source_Path>
C:\Users\yujiethinkpad\Desktop\05A\PTP1B

> <s_m_Source_File>
PTP1B_23471.sdf

> <i_m_Source_File_Index>
1

> <s_m_job_name>
align_ligands_6977

> <i_phase_Input_Structure_Number>
22

> <i_phase_Structure_Number>
22

> <r_phase_Similarity_to_Reference>
0.774397517835439

> <i_phase_Reference_Structure>
1

> <s_phase_Alignment_Method>
snapped core

> <s_phase_Alignment_Reason>


> <s_phase_Core_SMARTS>
a1aaaa1-a2aaaaa2

> <s_f3d_frozen_atoms>
12 13 17 23 11 10 25 6 7 8 9 24 35 30 31 32

> <s_m_subgroup_title>
align_ligands_6977

> <s_m_subgroupid>
align_ligands_6977

> <b_m_subgroup_collapsed>
0

$$$$
