23470
                    3D
 Schrodinger Suite 2021-2.
 42 43  0  0  1  0            999 V2000
   37.2881    5.8490   13.8451 C   0  0  0  0  0  0
   36.6691    6.6461   15.0041 C   0  0  0  0  0  0
   36.5790    5.8056   16.2846 C   0  0  0  0  0  0
   37.4488    7.8522   15.2688 N   0  0  0  0  0  0
   38.7412    7.8769   15.6266 C   0  0  0  0  0  0
   39.4250    6.8627   15.7623 O   0  0  0  0  0  0
   39.1764    9.1378   15.7951 N   0  0  0  0  0  0
   40.4853    9.5946   16.1112 C   0  0  0  0  0  0
   41.5137    8.7806   16.6327 C   0  0  0  0  0  0
   42.7822    9.3250   16.8900 C   0  0  0  0  0  0
   43.0450   10.6762   16.6049 C   0  0  0  0  0  0
   42.0282   11.5206   16.1176 C   0  0  0  0  0  0
   42.2873   12.9267   15.7821 C   0  0  0  0  0  0
   43.3823   13.8671   16.7369 S   0  0  0  0  0  0
   43.1476   15.2775   15.7311 C   0  0  0  0  0  0
   43.8752   16.4819   16.1316 C   0  0  0  0  0  0
   44.4812   16.4978   17.2220 O   0  0  0  0  0  0
   43.8704   17.4835   15.3844 O   0  5  0  0  0  0
   42.3691   15.0164   14.6386 C   0  0  0  0  0  0
   42.3667   15.8782   13.5781 O   0  0  0  0  0  0
   41.2080   16.1643   12.7922 C   0  0  0  0  0  0
   40.3207   17.2139   13.4354 C   0  0  0  0  0  0
   40.2567   17.2084   14.6736 O   0  0  0  0  0  0
   39.7110   18.0096   12.6896 O   0  5  0  0  0  0
   41.8220   13.7013   14.7495 C   0  0  0  0  0  0
   40.6969   12.9735   13.4518 Br  0  0  0  0  0  0
   40.7476   10.9633   15.9234 C   0  0  0  0  0  0
   37.3154    6.4391   12.9285 H   0  0  0  0  0  0
   38.3091    5.5418   14.0743 H   0  0  0  0  0  0
   36.7091    4.9489   13.6366 H   0  0  0  0  0  0
   35.6539    6.9337   14.7242 H   0  0  0  0  0  0
   36.1182    6.3713   17.0950 H   0  0  0  0  0  0
   35.9752    4.9119   16.1241 H   0  0  0  0  0  0
   37.5654    5.4836   16.6206 H   0  0  0  0  0  0
   36.9647    8.7318   15.1683 H   0  0  0  0  0  0
   38.5005    9.8668   15.6226 H   0  0  0  0  0  0
   41.3524    7.7376   16.8563 H   0  0  0  0  0  0
   43.5578    8.7050   17.3149 H   0  0  0  0  0  0
   44.0370   11.0688   16.7744 H   0  0  0  0  0  0
   41.5364   16.5374   11.8219 H   0  0  0  0  0  0
   40.6190   15.2672   12.5937 H   0  0  0  0  0  0
   39.9478   11.6184   15.6089 H   0  0  0  0  0  0
  1  2  1  0  0  0
  1 28  1  0  0  0
  1 29  1  0  0  0
  1 30  1  0  0  0
  2  3  1  0  0  0
  2  4  1  0  0  0
  2 31  1  0  0  0
  3 32  1  0  0  0
  3 33  1  0  0  0
  3 34  1  0  0  0
  4  5  1  0  0  0
  4 35  1  0  0  0
  5  6  2  0  0  0
  5  7  1  0  0  0
  7  8  1  0  0  0
  7 36  1  0  0  0
  8 27  1  0  0  0
  8  9  2  0  0  0
  9 10  1  0  0  0
  9 37  1  0  0  0
 10 11  2  0  0  0
 10 38  1  0  0  0
 11 12  1  0  0  0
 11 39  1  0  0  0
 12 13  1  0  0  0
 12 27  2  0  0  0
 13 25  2  0  0  0
 13 14  1  0  0  0
 14 15  1  0  0  0
 15 16  1  0  0  0
 15 19  2  0  0  0
 16 17  2  0  0  0
 16 18  1  0  0  0
 19 20  1  0  0  0
 19 25  1  0  0  0
 20 21  1  0  0  0
 21 22  1  0  0  0
 21 40  1  0  0  0
 21 41  1  0  0  0
 22 23  2  0  0  0
 22 24  1  0  0  0
 25 26  1  0  0  0
 27 42  1  0  0  0
M  CHG  2  18  -1  24  -1
M  END
> <i_m_stars>
2

> <s_m_entry_id>
474

> <s_m_entry_name>
PTP1B_23470.1

> <r_user_dG.exp>
-7.72301857947764

> <r_m_Molecular_weight>
455.2919

> <s_m_Source_Path>
C:\Users\yujiethinkpad\Desktop\05A\PTP1B

> <s_m_Source_File>
PTP1B_23470.sdf

> <i_m_Source_File_Index>
1

> <s_m_job_name>
align_ligands_6977

> <i_phase_Input_Structure_Number>
21

> <i_phase_Structure_Number>
21

> <r_phase_Similarity_to_Reference>
0.831130056630345

> <i_phase_Reference_Structure>
1

> <s_phase_Alignment_Method>
snapped core

> <s_phase_Alignment_Reason>


> <s_phase_Core_SMARTS>
a1aaaa1-a2aaaaa2

> <s_f3d_frozen_atoms>
14 15 19 25 13 12 27 8 9 10 11 26 42 37 38 39

> <s_m_subgroup_title>
align_ligands_6977

> <s_m_subgroupid>
align_ligands_6977

> <b_m_subgroup_collapsed>
0

$$$$
