23479
                    3D
 Schrodinger Suite 2021-2.
 49 51  0  0  1  0            999 V2000
   38.5216    3.9109   12.5764 C   0  0  0  0  0  0
   37.3963    4.6328   13.2565 C   0  0  0  0  0  0
   36.3012    4.1357   13.5105 O   0  0  0  0  0  0
   37.7304    5.8997   13.5490 N   0  0  0  0  0  0
   39.1036    6.5250   13.3090 C   0  0  0  0  0  0
   39.7874    6.8737   14.6347 C   0  0  0  0  0  0
   38.9381    7.6700   15.6600 C   0  0  0  0  0  0
   39.2248    9.1031   15.7150 N   0  0  0  0  0  0
   40.4853    9.5946   16.1112 C   0  0  0  0  0  0
   41.5137    8.7806   16.6327 C   0  0  0  0  0  0
   42.7822    9.3250   16.8900 C   0  0  0  0  0  0
   43.0450   10.6762   16.6049 C   0  0  0  0  0  0
   42.0282   11.5206   16.1176 C   0  0  0  0  0  0
   42.2873   12.9267   15.7821 C   0  0  0  0  0  0
   43.3823   13.8671   16.7369 S   0  0  0  0  0  0
   43.1476   15.2775   15.7311 C   0  0  0  0  0  0
   43.8752   16.4819   16.1316 C   0  0  0  0  0  0
   44.4812   16.4978   17.2220 O   0  0  0  0  0  0
   43.8704   17.4835   15.3844 O   0  5  0  0  0  0
   42.3691   15.0164   14.6386 C   0  0  0  0  0  0
   42.3667   15.8782   13.5781 O   0  0  0  0  0  0
   41.2080   16.1643   12.7922 C   0  0  0  0  0  0
   40.3207   17.2139   13.4354 C   0  0  0  0  0  0
   40.2567   17.2084   14.6736 O   0  0  0  0  0  0
   39.7110   18.0096   12.6896 O   0  5  0  0  0  0
   41.8220   13.7013   14.7495 C   0  0  0  0  0  0
   40.6969   12.9735   13.4518 Br  0  0  0  0  0  0
   40.7476   10.9633   15.9234 C   0  0  0  0  0  0
   37.4256    7.3367   15.6268 C   0  0  0  0  0  0
   36.8490    6.9324   14.2622 C   0  0  0  0  0  0
   39.3748    4.5815   12.4748 H   0  0  0  0  0  0
   38.8095    3.0442   13.1716 H   0  0  0  0  0  0
   38.1982    3.5822   11.5888 H   0  0  0  0  0  0
   39.7546    5.8725   12.7273 H   0  0  0  0  0  0
   38.9708    7.4270   12.7116 H   0  0  0  0  0  0
   40.1064    5.9574   15.1314 H   0  0  0  0  0  0
   40.6930    7.4503   14.4466 H   0  0  0  0  0  0
   39.1548    7.3155   16.6677 H   0  0  0  0  0  0
   38.4725    9.7234   15.4508 H   0  0  0  0  0  0
   41.3611    7.7360   16.8461 H   0  0  0  0  0  0
   43.5602    8.7030   17.3074 H   0  0  0  0  0  0
   44.0411   11.0653   16.7575 H   0  0  0  0  0  0
   41.5148   16.5351   11.8141 H   0  0  0  0  0  0
   40.6197   15.2552   12.6679 H   0  0  0  0  0  0
   39.9431   11.6200   15.6250 H   0  0  0  0  0  0
   37.2179    6.5164   16.3139 H   0  0  0  0  0  0
   36.8476    8.1886   15.9848 H   0  0  0  0  0  0
   36.7019    7.8323   13.6650 H   0  0  0  0  0  0
   35.8583    6.4999   14.4016 H   0  0  0  0  0  0
  1  2  1  0  0  0
  1 31  1  0  0  0
  1 32  1  0  0  0
  1 33  1  0  0  0
  2  3  2  0  0  0
  2  4  1  0  0  0
  4 30  1  0  0  0
  4  5  1  0  0  0
  5  6  1  0  0  0
  5 34  1  0  0  0
  5 35  1  0  0  0
  6  7  1  0  0  0
  6 36  1  0  0  0
  6 37  1  0  0  0
  7  8  1  0  0  0
  7 29  1  0  0  0
  7 38  1  0  0  0
  8  9  1  0  0  0
  8 39  1  0  0  0
  9 28  1  0  0  0
  9 10  2  0  0  0
 10 11  1  0  0  0
 10 40  1  0  0  0
 11 12  2  0  0  0
 11 41  1  0  0  0
 12 13  1  0  0  0
 12 42  1  0  0  0
 13 14  1  0  0  0
 13 28  2  0  0  0
 14 26  2  0  0  0
 14 15  1  0  0  0
 15 16  1  0  0  0
 16 17  1  0  0  0
 16 20  2  0  0  0
 17 18  2  0  0  0
 17 19  1  0  0  0
 20 21  1  0  0  0
 20 26  1  0  0  0
 21 22  1  0  0  0
 22 23  1  0  0  0
 22 43  1  0  0  0
 22 44  1  0  0  0
 23 24  2  0  0  0
 23 25  1  0  0  0
 26 27  1  0  0  0
 28 45  1  0  0  0
 29 30  1  0  0  0
 29 46  1  0  0  0
 29 47  1  0  0  0
 30 48  1  0  0  0
 30 49  1  0  0  0
M  CHG  2  19  -1  25  -1
M  END
> <i_m_stars>
2

> <s_m_entry_id>
460

> <s_m_entry_name>
PTP1B_23479.1

> <r_user_dG.exp>
-9.14235922654499

> <r_m_Molecular_weight>
495.35723

> <s_m_Source_Path>
C:\Users\yujiethinkpad\Desktop\05A\PTP1B

> <s_m_Source_File>
PTP1B_23479.sdf

> <i_m_Source_File_Index>
1

> <s_m_job_name>
align_ligands_6977

> <i_phase_Input_Structure_Number>
7

> <i_phase_Structure_Number>
7

> <r_phase_Similarity_to_Reference>
0.919713780388706

> <i_phase_Reference_Structure>
1

> <s_phase_Alignment_Method>
snapped core

> <s_phase_Alignment_Reason>


> <s_phase_Core_SMARTS>
a1aaaa1-a2aa(aaa2)AA3AAAAA3

> <s_f3d_frozen_atoms>
15 16 20 26 14 13 28 9 10 11 12 8 7 29 30 4 5 6 27 45 40 41 42 39 38 46 47 48 49 34 35 36 37

> <s_m_subgroup_title>
align_ligands_6977

> <s_m_subgroupid>
align_ligands_6977

> <b_m_subgroup_collapsed>
0

$$$$
