23475
                    3D
 Schrodinger Suite 2021-2.
 42 44  0  0  1  0            999 V2000
   40.2567   17.2084   14.6736 O   0  0  0  0  0  0
   40.3207   17.2139   13.4354 C   0  0  0  0  0  0
   39.7110   18.0096   12.6896 O   0  5  0  0  0  0
   41.2080   16.1643   12.7922 C   0  0  0  0  0  0
   42.3667   15.8782   13.5781 O   0  0  0  0  0  0
   42.3691   15.0164   14.6386 C   0  0  0  0  0  0
   41.8220   13.7013   14.7495 C   0  0  0  0  0  0
   40.6969   12.9735   13.4518 Br  0  0  0  0  0  0
   42.2873   12.9267   15.7821 C   0  0  0  0  0  0
   42.0282   11.5206   16.1176 C   0  0  0  0  0  0
   43.0450   10.6762   16.6049 C   0  0  0  0  0  0
   42.7822    9.3250   16.8900 C   0  0  0  0  0  0
   41.5137    8.7806   16.6327 C   0  0  0  0  0  0
   40.4853    9.5946   16.1112 C   0  0  0  0  0  0
   39.2535    8.9908   15.8140 N   0  0  0  0  0  0
   39.1641    7.6171   15.3614 C   0  0  0  0  0  0
   39.4675    7.4796   13.8684 C   0  0  0  0  0  0
   38.6987    6.2305   13.4451 C   0  0  0  0  0  0
   37.4031    6.2969   14.2556 C   0  0  0  0  0  0
   37.7614    7.0236   15.5608 C   0  0  0  0  0  0
   40.7476   10.9633   15.9234 C   0  0  0  0  0  0
   43.3823   13.8671   16.7369 S   0  0  0  0  0  0
   43.1476   15.2775   15.7311 C   0  0  0  0  0  0
   43.8752   16.4819   16.1316 C   0  0  0  0  0  0
   44.4812   16.4978   17.2220 O   0  0  0  0  0  0
   43.8704   17.4835   15.3844 O   0  5  0  0  0  0
   41.4800   16.4769   11.7824 H   0  0  0  0  0  0
   40.6411   15.2392   12.6855 H   0  0  0  0  0  0
   44.0426   11.0609   16.7601 H   0  0  0  0  0  0
   43.5588    8.7006   17.3066 H   0  0  0  0  0  0
   41.3348    7.7348   16.8362 H   0  0  0  0  0  0
   38.4039    9.4434   16.1186 H   0  0  0  0  0  0
   39.8886    7.0399   15.9357 H   0  0  0  0  0  0
   39.1818    8.3636   13.2983 H   0  0  0  0  0  0
   40.5360    7.3223   13.7209 H   0  0  0  0  0  0
   38.4721    6.2805   12.3802 H   0  0  0  0  0  0
   39.2580    5.3117   13.6212 H   0  0  0  0  0  0
   36.6596    6.8766   13.7085 H   0  0  0  0  0  0
   36.9768    5.3093   14.4323 H   0  0  0  0  0  0
   37.7554    6.3375   16.4078 H   0  0  0  0  0  0
   37.0306    7.8035   15.7748 H   0  0  0  0  0  0
   39.9445   11.6195   15.6254 H   0  0  0  0  0  0
  1  2  2  0  0  0
  2  3  1  0  0  0
  2  4  1  0  0  0
  4  5  1  0  0  0
  4 27  1  0  0  0
  4 28  1  0  0  0
  5  6  1  0  0  0
  6 23  2  0  0  0
  6  7  1  0  0  0
  7  8  1  0  0  0
  7  9  2  0  0  0
  9 10  1  0  0  0
  9 22  1  0  0  0
 10 21  1  0  0  0
 10 11  2  0  0  0
 11 12  1  0  0  0
 11 29  1  0  0  0
 12 13  2  0  0  0
 12 30  1  0  0  0
 13 14  1  0  0  0
 13 31  1  0  0  0
 14 15  1  0  0  0
 14 21  2  0  0  0
 15 16  1  0  0  0
 15 32  1  0  0  0
 16 20  1  0  0  0
 16 17  1  0  0  0
 16 33  1  0  0  0
 17 18  1  0  0  0
 17 34  1  0  0  0
 17 35  1  0  0  0
 18 19  1  0  0  0
 18 36  1  0  0  0
 18 37  1  0  0  0
 19 20  1  0  0  0
 19 38  1  0  0  0
 19 39  1  0  0  0
 20 40  1  0  0  0
 20 41  1  0  0  0
 21 42  1  0  0  0
 22 23  1  0  0  0
 23 24  1  0  0  0
 24 25  2  0  0  0
 24 26  1  0  0  0
M  CHG  2   3  -1  26  -1
M  END
> <i_m_stars>
2

> <s_m_entry_id>
457

> <s_m_entry_name>
PTP1B_23475.1

> <r_user_dG.exp>
-8.71754822596421

> <r_m_Molecular_weight>
438.30492

> <s_m_Source_Path>
C:\Users\yujiethinkpad\Desktop\05A\PTP1B

> <s_m_Source_File>
PTP1B_23475.sdf

> <i_m_Source_File_Index>
1

> <s_m_job_name>
align_ligands_6977

> <i_phase_Input_Structure_Number>
4

> <i_phase_Structure_Number>
4

> <r_phase_Similarity_to_Reference>
0.919573083379563

> <i_phase_Reference_Structure>
1

> <s_phase_Alignment_Method>
snapped core

> <s_phase_Alignment_Reason>


> <s_phase_Core_SMARTS>
a1aaaa1-a2aaaaa2

> <s_f3d_frozen_atoms>
22 23 6 7 9 10 21 14 13 12 11 8 42 31 30 29

> <s_m_subgroup_title>
align_ligands_6977

> <s_m_subgroupid>
align_ligands_6977

> <b_m_subgroup_collapsed>
0

$$$$
