23484
                    3D
 Schrodinger Suite 2021-2.
 60 63  0  0  1  0            999 V2000
   40.2567   17.2084   14.6736 O   0  0  0  0  0  0
   40.3207   17.2139   13.4354 C   0  0  0  0  0  0
   39.7110   18.0096   12.6896 O   0  5  0  0  0  0
   41.2080   16.1643   12.7922 C   0  0  0  0  0  0
   42.3667   15.8782   13.5781 O   0  0  0  0  0  0
   42.3691   15.0164   14.6386 C   0  0  0  0  0  0
   41.8220   13.7013   14.7495 C   0  0  0  0  0  0
   42.2873   12.9267   15.7821 C   0  0  0  0  0  0
   42.0282   11.5206   16.1176 C   0  0  0  0  0  0
   43.0450   10.6762   16.6049 C   0  0  0  0  0  0
   42.7822    9.3250   16.8900 C   0  0  0  0  0  0
   41.5137    8.7806   16.6327 C   0  0  0  0  0  0
   40.4853    9.5946   16.1112 C   0  0  0  0  0  0
   39.2248    9.1031   15.7150 N   0  0  0  0  0  0
   38.9381    7.6700   15.6600 C   0  0  0  0  0  0
   37.4256    7.3367   15.6268 C   0  0  0  0  0  0
   36.8490    6.9324   14.2622 C   0  0  0  0  0  0
   37.7304    5.8997   13.5490 N   0  0  2  0  0  0
   37.3334    4.2270   13.5722 S   0  0  0  0  0  0
   38.1685    3.5702   12.5573 O   0  0  0  0  0  0
   35.8660    4.1055   13.5181 O   0  0  0  0  0  0
   37.9214    3.6870   15.2381 C   0  0  0  0  0  0
   37.8571    2.1737   15.3019 C   0  0  0  0  0  0
   36.6739    1.5389   15.6914 C   0  0  0  0  0  0
   36.6009    0.1467   15.7087 C   0  0  0  0  0  0
   37.7097   -0.6122   15.3373 C   0  0  0  0  0  0
   38.8964    0.0148   14.9575 C   0  0  0  0  0  0
   38.9713    1.4073   14.9425 C   0  0  0  0  0  0
   39.1036    6.5250   13.3090 C   0  0  0  0  0  0
   39.7874    6.8737   14.6347 C   0  0  0  0  0  0
   40.7476   10.9633   15.9234 C   0  0  0  0  0  0
   43.3823   13.8671   16.7369 S   0  0  0  0  0  0
   43.1476   15.2775   15.7311 C   0  0  0  0  0  0
   43.8752   16.4819   16.1316 C   0  0  0  0  0  0
   44.4812   16.4978   17.2220 O   0  0  0  0  0  0
   43.8704   17.4835   15.3844 O   0  5  0  0  0  0
   41.5395   16.5425   11.8252 H   0  0  0  0  0  0
   40.6317   15.2587   12.5920 H   0  0  0  0  0  0
   41.0807   13.3389   14.0527 H   0  0  0  0  0  0
   44.0398   11.0625   16.7729 H   0  0  0  0  0  0
   43.5573    8.7012   17.3101 H   0  0  0  0  0  0
   41.3398    7.7340   16.8367 H   0  0  0  0  0  0
   38.5226    9.7862   15.4697 H   0  0  0  0  0  0
   39.1616    7.2770   16.6518 H   0  0  0  0  0  0
   37.2035    6.5336   16.3296 H   0  0  0  0  0  0
   36.8590    8.2021   15.9704 H   0  0  0  0  0  0
   35.8540    6.5004   14.3690 H   0  0  0  0  0  0
   36.7253    7.8103   13.6280 H   0  0  0  0  0  0
   38.9529    4.0225   15.3451 H   0  0  0  0  0  0
   37.3353    4.1958   16.0031 H   0  0  0  0  0  0
   35.8158    2.1223   15.9933 H   0  0  0  0  0  0
   35.6854   -0.3401   16.0116 H   0  0  0  0  0  0
   37.6512   -1.6906   15.3400 H   0  0  0  0  0  0
   39.7538   -0.5784   14.6757 H   0  0  0  0  0  0
   39.8943    1.8885   14.6547 H   0  0  0  0  0  0
   39.6917    5.8153   12.7272 H   0  0  0  0  0  0
   38.9985    7.4094   12.6806 H   0  0  0  0  0  0
   40.6842    7.4430   14.3911 H   0  0  0  0  0  0
   40.1348    5.9414   15.0799 H   0  0  0  0  0  0
   39.9522   11.6166   15.6116 H   0  0  0  0  0  0
  1  2  2  0  0  0
  2  3  1  0  0  0
  2  4  1  0  0  0
  4  5  1  0  0  0
  4 37  1  0  0  0
  4 38  1  0  0  0
  5  6  1  0  0  0
  6 33  2  0  0  0
  6  7  1  0  0  0
  7  8  2  0  0  0
  7 39  1  0  0  0
  8  9  1  0  0  0
  8 32  1  0  0  0
  9 31  1  0  0  0
  9 10  2  0  0  0
 10 11  1  0  0  0
 10 40  1  0  0  0
 11 12  2  0  0  0
 11 41  1  0  0  0
 12 13  1  0  0  0
 12 42  1  0  0  0
 13 14  1  0  0  0
 13 31  2  0  0  0
 14 15  1  0  0  0
 14 43  1  0  0  0
 15 30  1  0  0  0
 15 16  1  0  0  0
 15 44  1  0  0  0
 16 17  1  0  0  0
 16 45  1  0  0  0
 16 46  1  0  0  0
 17 18  1  0  0  0
 17 47  1  0  0  0
 17 48  1  0  0  0
 18 19  1  0  0  0
 18 29  1  0  0  0
 19 20  2  0  0  0
 19 21  2  0  0  0
 19 22  1  0  0  0
 22 23  1  0  0  0
 22 49  1  0  0  0
 22 50  1  0  0  0
 23 28  1  0  0  0
 23 24  2  0  0  0
 24 25  1  0  0  0
 24 51  1  0  0  0
 25 26  2  0  0  0
 25 52  1  0  0  0
 26 27  1  0  0  0
 26 53  1  0  0  0
 27 28  2  0  0  0
 27 54  1  0  0  0
 28 55  1  0  0  0
 29 30  1  0  0  0
 29 56  1  0  0  0
 29 57  1  0  0  0
 30 58  1  0  0  0
 30 59  1  0  0  0
 31 60  1  0  0  0
 32 33  1  0  0  0
 33 34  1  0  0  0
 34 35  2  0  0  0
 34 36  1  0  0  0
M  CHG  2   3  -1  36  -1
M  END
> <i_m_stars>
2

> <s_m_entry_id>
464

> <s_m_entry_name>
PTP1B_23484.1

> <r_user_dG.exp>
-7.75184064198728

> <r_m_Molecular_weight>
528.60723

> <s_m_Source_Path>
C:\Users\yujiethinkpad\Desktop\05A\PTP1B

> <s_m_Source_File>
PTP1B_23484.sdf

> <i_m_Source_File_Index>
1

> <s_m_job_name>
align_ligands_6977

> <i_phase_Input_Structure_Number>
11

> <i_phase_Structure_Number>
11

> <r_phase_Similarity_to_Reference>
0.70254339286566

> <i_phase_Reference_Structure>
1

> <s_phase_Alignment_Method>
snapped core

> <s_phase_Alignment_Reason>


> <s_phase_Core_SMARTS>
a1aaaa1-a2aa(aaa2)AA3AAAAA3

> <s_f3d_frozen_atoms>
32 33 6 7 8 9 31 13 12 11 10 14 15 16 17 18 29 30 39 60 42 41 40 43 44 45 46 47 48 56 57 58 59

> <s_m_subgroup_title>
align_ligands_6977

> <s_m_subgroupid>
align_ligands_6977

> <b_m_subgroup_collapsed>
0

$$$$
