23486
                    3D
 Schrodinger Suite 2021-2.
 60 63  0  0  1  0            999 V2000
   40.2567   17.2084   14.6736 O   0  0  0  0  0  0
   40.3207   17.2139   13.4354 C   0  0  0  0  0  0
   39.7110   18.0096   12.6896 O   0  5  0  0  0  0
   41.2080   16.1643   12.7922 C   0  0  0  0  0  0
   42.3667   15.8782   13.5781 O   0  0  0  0  0  0
   42.3691   15.0164   14.6386 C   0  0  0  0  0  0
   41.8220   13.7013   14.7495 C   0  0  0  0  0  0
   40.6415   13.1805   13.6374 Cl  0  0  0  0  0  0
   42.2873   12.9267   15.7821 C   0  0  0  0  0  0
   42.0282   11.5206   16.1176 C   0  0  0  0  0  0
   43.0450   10.6762   16.6049 C   0  0  0  0  0  0
   42.7822    9.3250   16.8900 C   0  0  0  0  0  0
   41.5137    8.7806   16.6327 C   0  0  0  0  0  0
   40.4853    9.5946   16.1112 C   0  0  0  0  0  0
   39.2248    9.1031   15.7150 N   0  0  0  0  0  0
   38.9381    7.6700   15.6600 C   0  0  0  0  0  0
   37.4256    7.3367   15.6268 C   0  0  0  0  0  0
   36.8490    6.9324   14.2622 C   0  0  0  0  0  0
   37.7304    5.8997   13.5490 N   0  0  1  0  0  0
   37.0119    5.4650   12.0250 S   0  0  0  0  0  0
   37.8051    4.3698   11.4564 O   0  0  0  0  0  0
   36.7656    6.7047   11.2804 O   0  0  0  0  0  0
   35.4310    4.7967   12.4969 C   0  0  0  0  0  0
   35.6365    3.6119   13.3937 C   0  0  0  0  0  0
   36.9239    3.2062   13.7250 C   0  0  0  0  0  0
   37.1143    2.1085   14.5559 C   0  0  0  0  0  0
   36.0174    1.4165   15.0554 C   0  0  0  0  0  0
   34.7301    1.8221   14.7240 C   0  0  0  0  0  0
   34.5396    2.9199   13.8931 C   0  0  0  0  0  0
   39.1036    6.5250   13.3090 C   0  0  0  0  0  0
   39.7874    6.8737   14.6347 C   0  0  0  0  0  0
   40.7476   10.9633   15.9234 C   0  0  0  0  0  0
   43.3823   13.8671   16.7369 S   0  0  0  0  0  0
   43.1476   15.2775   15.7311 C   0  0  0  0  0  0
   43.8752   16.4819   16.1316 C   0  0  0  0  0  0
   44.4812   16.4978   17.2220 O   0  0  0  0  0  0
   43.8704   17.4835   15.3844 O   0  5  0  0  0  0
   41.5409   16.5184   11.8165 H   0  0  0  0  0  0
   40.6458   15.2385   12.6703 H   0  0  0  0  0  0
   44.0403   11.0628   16.7693 H   0  0  0  0  0  0
   43.5580    8.7007   17.3081 H   0  0  0  0  0  0
   41.3396    7.7339   16.8362 H   0  0  0  0  0  0
   38.5080    9.7842   15.5097 H   0  0  0  0  0  0
   39.1616    7.2770   16.6518 H   0  0  0  0  0  0
   37.2035    6.5336   16.3296 H   0  0  0  0  0  0
   36.8590    8.2021   15.9704 H   0  0  0  0  0  0
   35.8540    6.5004   14.3690 H   0  0  0  0  0  0
   36.7253    7.8103   13.6280 H   0  0  0  0  0  0
   34.8581    5.5580   13.0263 H   0  0  0  0  0  0
   34.8865    4.4870   11.6049 H   0  0  0  0  0  0
   37.7779    3.7451   13.3362 H   0  0  0  0  0  0
   38.1166    1.7927   14.8139 H   0  0  0  0  0  0
   36.1657    0.5618   15.7023 H   0  0  0  0  0  0
   33.8761    1.2833   15.1129 H   0  0  0  0  0  0
   33.5374    3.2357   13.6351 H   0  0  0  0  0  0
   39.6917    5.8153   12.7272 H   0  0  0  0  0  0
   38.9985    7.4094   12.6806 H   0  0  0  0  0  0
   40.6842    7.4430   14.3911 H   0  0  0  0  0  0
   40.1348    5.9414   15.0799 H   0  0  0  0  0  0
   39.9601   11.6260   15.6094 H   0  0  0  0  0  0
  1  2  2  0  0  0
  2  3  1  0  0  0
  2  4  1  0  0  0
  4  5  1  0  0  0
  4 38  1  0  0  0
  4 39  1  0  0  0
  5  6  1  0  0  0
  6 34  2  0  0  0
  6  7  1  0  0  0
  7  8  1  0  0  0
  7  9  2  0  0  0
  9 10  1  0  0  0
  9 33  1  0  0  0
 10 32  1  0  0  0
 10 11  2  0  0  0
 11 12  1  0  0  0
 11 40  1  0  0  0
 12 13  2  0  0  0
 12 41  1  0  0  0
 13 14  1  0  0  0
 13 42  1  0  0  0
 14 15  1  0  0  0
 14 32  2  0  0  0
 15 16  1  0  0  0
 15 43  1  0  0  0
 16 31  1  0  0  0
 16 17  1  0  0  0
 16 44  1  0  0  0
 17 18  1  0  0  0
 17 45  1  0  0  0
 17 46  1  0  0  0
 18 19  1  0  0  0
 18 47  1  0  0  0
 18 48  1  0  0  0
 19 20  1  0  0  0
 19 30  1  0  0  0
 20 21  2  0  0  0
 20 22  2  0  0  0
 20 23  1  0  0  0
 23 24  1  0  0  0
 23 49  1  0  0  0
 23 50  1  0  0  0
 24 29  1  0  0  0
 24 25  2  0  0  0
 25 26  1  0  0  0
 25 51  1  0  0  0
 26 27  2  0  0  0
 26 52  1  0  0  0
 27 28  1  0  0  0
 27 53  1  0  0  0
 28 29  2  0  0  0
 28 54  1  0  0  0
 29 55  1  0  0  0
 30 31  1  0  0  0
 30 56  1  0  0  0
 30 57  1  0  0  0
 31 58  1  0  0  0
 31 59  1  0  0  0
 32 60  1  0  0  0
 33 34  1  0  0  0
 34 35  1  0  0  0
 35 36  2  0  0  0
 35 37  1  0  0  0
M  CHG  2   3  -1  37  -1
M  END
> <i_m_stars>
2

> <s_m_entry_id>
466

> <s_m_entry_name>
PTP1B_23486.1

> <r_user_dG.exp>
-12.4697848806838

> <r_m_Molecular_weight>
563.05226

> <s_m_Source_Path>
C:\Users\yujiethinkpad\Desktop\05A\PTP1B

> <s_m_Source_File>
PTP1B_23486.sdf

> <i_m_Source_File_Index>
1

> <s_m_job_name>
align_ligands_6977

> <i_phase_Input_Structure_Number>
13

> <i_phase_Structure_Number>
13

> <r_phase_Similarity_to_Reference>
0.69550346490771

> <i_phase_Reference_Structure>
1

> <s_phase_Alignment_Method>
snapped core

> <s_phase_Alignment_Reason>


> <s_phase_Core_SMARTS>
a1aaaa1-a2aa(aaa2)AA3AAAAA3

> <s_f3d_frozen_atoms>
33 34 6 7 9 10 32 14 13 12 11 15 16 17 18 19 30 31 8 60 42 41 40 43 44 45 46 47 48 56 57 58 59

> <s_m_subgroup_title>
align_ligands_6977

> <s_m_subgroupid>
align_ligands_6977

> <b_m_subgroup_collapsed>
0

$$$$
