23483
                    3D
 Schrodinger Suite 2021-2.
 57 60  0  0  1  0            999 V2000
   40.2567   17.2084   14.6736 O   0  0  0  0  0  0
   40.3207   17.2139   13.4354 C   0  0  0  0  0  0
   39.7110   18.0096   12.6896 O   0  5  0  0  0  0
   41.2080   16.1643   12.7922 C   0  0  0  0  0  0
   42.3667   15.8782   13.5781 O   0  0  0  0  0  0
   42.3691   15.0164   14.6386 C   0  0  0  0  0  0
   41.8220   13.7013   14.7495 C   0  0  0  0  0  0
   40.6969   12.9735   13.4518 Br  0  0  0  0  0  0
   42.2873   12.9267   15.7821 C   0  0  0  0  0  0
   42.0282   11.5206   16.1176 C   0  0  0  0  0  0
   43.0450   10.6762   16.6049 C   0  0  0  0  0  0
   42.7822    9.3250   16.8900 C   0  0  0  0  0  0
   41.5137    8.7806   16.6327 C   0  0  0  0  0  0
   40.4853    9.5946   16.1112 C   0  0  0  0  0  0
   39.2248    9.1031   15.7150 N   0  0  0  0  0  0
   38.9381    7.6700   15.6600 C   0  0  0  0  0  0
   37.4256    7.3367   15.6268 C   0  0  0  0  0  0
   36.8490    6.9324   14.2622 C   0  0  0  0  0  0
   37.7304    5.8997   13.5490 N   0  0  3  0  0  0
   37.1365    4.6469   12.9765 S   0  0  0  0  0  0
   35.7046    4.8857   12.7378 O   0  0  0  0  0  0
   38.0114    4.1977   11.8825 O   0  0  0  0  0  0
   37.3290    3.4853   14.3219 C   0  0  0  0  0  0
   38.6245    3.1629   14.7724 C   0  0  0  0  0  0
   38.7847    2.2629   15.8441 C   0  0  0  0  0  0
   37.6529    1.6922   16.4606 C   0  0  0  0  0  0
   36.3591    2.0207   16.0079 C   0  0  0  0  0  0
   36.1937    2.9216   14.9376 C   0  0  0  0  0  0
   39.1036    6.5250   13.3090 C   0  0  0  0  0  0
   39.7874    6.8737   14.6347 C   0  0  0  0  0  0
   40.7476   10.9633   15.9234 C   0  0  0  0  0  0
   43.3823   13.8671   16.7369 S   0  0  0  0  0  0
   43.1476   15.2775   15.7311 C   0  0  0  0  0  0
   43.8752   16.4819   16.1316 C   0  0  0  0  0  0
   44.4812   16.4978   17.2220 O   0  0  0  0  0  0
   43.8704   17.4835   15.3844 O   0  5  0  0  0  0
   41.4707   16.4738   11.7783 H   0  0  0  0  0  0
   40.6337   15.2429   12.6963 H   0  0  0  0  0  0
   44.0426   11.0604   16.7611 H   0  0  0  0  0  0
   43.5583    8.7015   17.3088 H   0  0  0  0  0  0
   41.3374    7.7348   16.8389 H   0  0  0  0  0  0
   38.5036    9.7798   15.5106 H   0  0  0  0  0  0
   39.1616    7.2770   16.6518 H   0  0  0  0  0  0
   37.2035    6.5336   16.3296 H   0  0  0  0  0  0
   36.8590    8.2021   15.9704 H   0  0  0  0  0  0
   35.8540    6.5004   14.3690 H   0  0  0  0  0  0
   36.7253    7.8103   13.6280 H   0  0  0  0  0  0
   39.4893    3.6030   14.2980 H   0  0  0  0  0  0
   39.7751    2.0098   16.1929 H   0  0  0  0  0  0
   37.7770    1.0008   17.2810 H   0  0  0  0  0  0
   35.4930    1.5808   16.4799 H   0  0  0  0  0  0
   35.2015    3.1689   14.5896 H   0  0  0  0  0  0
   39.6917    5.8153   12.7272 H   0  0  0  0  0  0
   38.9985    7.4094   12.6806 H   0  0  0  0  0  0
   40.6842    7.4430   14.3911 H   0  0  0  0  0  0
   40.1348    5.9414   15.0799 H   0  0  0  0  0  0
   39.9600   11.6332   15.6281 H   0  0  0  0  0  0
  1  2  2  0  0  0
  2  3  1  0  0  0
  2  4  1  0  0  0
  4  5  1  0  0  0
  4 37  1  0  0  0
  4 38  1  0  0  0
  5  6  1  0  0  0
  6 33  2  0  0  0
  6  7  1  0  0  0
  7  8  1  0  0  0
  7  9  2  0  0  0
  9 10  1  0  0  0
  9 32  1  0  0  0
 10 31  1  0  0  0
 10 11  2  0  0  0
 11 12  1  0  0  0
 11 39  1  0  0  0
 12 13  2  0  0  0
 12 40  1  0  0  0
 13 14  1  0  0  0
 13 41  1  0  0  0
 14 15  1  0  0  0
 14 31  2  0  0  0
 15 16  1  0  0  0
 15 42  1  0  0  0
 16 30  1  0  0  0
 16 17  1  0  0  0
 16 43  1  0  0  0
 17 18  1  0  0  0
 17 44  1  0  0  0
 17 45  1  0  0  0
 18 19  1  0  0  0
 18 46  1  0  0  0
 18 47  1  0  0  0
 19 20  1  0  0  0
 19 29  1  0  0  0
 20 21  2  0  0  0
 20 22  2  0  0  0
 20 23  1  0  0  0
 23 28  1  0  0  0
 23 24  2  0  0  0
 24 25  1  0  0  0
 24 48  1  0  0  0
 25 26  2  0  0  0
 25 49  1  0  0  0
 26 27  1  0  0  0
 26 50  1  0  0  0
 27 28  2  0  0  0
 27 51  1  0  0  0
 28 52  1  0  0  0
 29 30  1  0  0  0
 29 53  1  0  0  0
 29 54  1  0  0  0
 30 55  1  0  0  0
 30 56  1  0  0  0
 31 57  1  0  0  0
 32 33  1  0  0  0
 33 34  1  0  0  0
 34 35  2  0  0  0
 34 36  1  0  0  0
M  CHG  2   3  -1  36  -1
M  END
> <i_m_stars>
2

> <s_m_entry_id>
463

> <s_m_entry_name>
PTP1B_23483.1

> <r_user_dG.exp>
-9.8746881466035

> <r_m_Molecular_weight>
593.48117

> <s_m_Source_Path>
C:\Users\yujiethinkpad\Desktop\05A\PTP1B

> <s_m_Source_File>
PTP1B_23483.sdf

> <i_m_Source_File_Index>
1

> <s_m_job_name>
align_ligands_6977

> <i_phase_Input_Structure_Number>
10

> <i_phase_Structure_Number>
10

> <r_phase_Similarity_to_Reference>
0.743909335554848

> <i_phase_Reference_Structure>
1

> <s_phase_Alignment_Method>
snapped core

> <s_phase_Alignment_Reason>


> <s_phase_Core_SMARTS>
a1aaaa1-a2aa(aaa2)AA3AAAAA3

> <s_f3d_frozen_atoms>
32 33 6 7 9 10 31 14 13 12 11 15 16 17 18 19 29 30 8 57 41 40 39 42 43 44 45 46 47 53 54 55 56

> <s_m_subgroup_title>
align_ligands_6977

> <s_m_subgroupid>
align_ligands_6977

> <b_m_subgroup_collapsed>
0

$$$$
