CAT-17i
                    3D
 Schrodinger Suite 2021-2.
 45 48  0  0  1  0            999 V2000
   12.9308  -11.4509    0.0655 C   0  0  0  0  0  0
   12.5826  -10.1018   -0.4901 C   0  0  0  0  0  0
   11.2707   -9.8168   -0.8649 C   0  0  0  0  0  0
   10.9100   -8.6109   -1.3718 N   0  0  0  0  0  0
   11.8789   -7.6683   -1.5079 C   0  0  0  0  0  0
   13.2105   -7.8821   -1.1545 C   0  0  0  0  0  0
   14.2331   -6.7988   -1.3299 C   0  0  0  0  0  0
   15.5583   -7.1291   -1.5874 C   0  0  0  0  0  0
   16.5057   -6.1254   -1.7500 C   0  0  0  0  0  0
   16.1280   -4.7912   -1.6549 C   0  0  0  0  0  0
   14.8028   -4.4609   -1.3974 C   0  0  0  0  0  0
   14.3951   -3.0210   -1.2948 C   0  0  1  0  0  0
   15.3539   -2.1815   -2.0859 C   0  0  0  0  0  0
   14.8529   -0.9052   -2.7231 C   0  0  0  0  0  0
   15.7806   -0.8414   -1.5309 C   0  0  0  0  0  0
   13.0105   -2.8144   -1.7190 N   0  3  0  0  0  0
   12.2498   -2.3336   -0.7364 C   0  0  0  0  0  0
   10.8276   -2.0250   -0.8533 N   0  0  0  0  0  0
   12.9746   -2.1760    0.3655 N   0  0  0  0  0  0
   12.4692   -1.6694    1.6381 C   0  0  0  0  0  0
   14.3488   -2.5731    0.1509 C   0  0  0  0  0  0
   15.2519   -2.5394    0.9852 O   0  0  0  0  0  0
   13.8553   -5.4647   -1.2349 C   0  0  0  0  0  0
   13.5673   -9.1248   -0.6353 C   0  0  0  0  0  0
   13.9951  -11.4841    0.2987 H   0  0  0  0  0  0
   12.3543  -11.6299    0.9731 H   0  0  0  0  0  0
   12.6962  -12.2189   -0.6715 H   0  0  0  0  0  0
   10.4928  -10.5636   -0.7591 H   0  0  0  0  0  0
   11.5735   -6.7114   -1.9141 H   0  0  0  0  0  0
   15.8524   -8.1678   -1.6614 H   0  0  0  0  0  0
   17.5375   -6.3826   -1.9505 H   0  0  0  0  0  0
   16.8656   -4.0098   -1.7815 H   0  0  0  0  0  0
   16.0866   -2.7870   -2.6238 H   0  0  0  0  0  0
   15.2360   -0.6204   -3.7053 H   0  0  0  0  0  0
   13.8052   -0.6261   -2.5915 H   0  0  0  0  0  0
   15.3802   -0.5178   -0.5678 H   0  0  0  0  0  0
   16.8110   -0.5121   -1.6816 H   0  0  0  0  0  0
   12.6758   -3.0160   -2.6542 H   0  0  0  0  0  0
   10.3372   -2.1780   -1.7518 H   0  0  0  0  0  0
   13.2793   -1.6450    2.3670 H   0  0  0  0  0  0
   12.0762   -0.6624    1.4980 H   0  0  0  0  0  0
   11.6748   -2.3224    1.9994 H   0  0  0  0  0  0
   12.8236   -5.2075   -1.0344 H   0  0  0  0  0  0
   14.5905   -9.3283   -0.3496 H   0  0  0  0  0  0
   10.3098   -1.6535   -0.0377 H   0  0  0  0  0  0
  1  2  1  0  0  0
  1 25  1  0  0  0
  1 26  1  0  0  0
  1 27  1  0  0  0
  2  3  2  0  0  0
  2 24  1  0  0  0
  3  4  1  0  0  0
  3 28  1  0  0  0
  4  5  2  0  0  0
  5  6  1  0  0  0
  5 29  1  0  0  0
  6  7  1  0  0  0
  6 24  2  0  0  0
  7  8  2  0  0  0
  7 23  1  0  0  0
  8  9  1  0  0  0
  8 30  1  0  0  0
  9 10  2  0  0  0
  9 31  1  0  0  0
 10 11  1  0  0  0
 10 32  1  0  0  0
 11 12  1  0  0  0
 11 23  2  0  0  0
 12 13  1  0  0  0
 12 16  1  0  0  0
 12 21  1  0  0  0
 13 14  1  0  0  0
 13 15  1  0  0  0
 13 33  1  0  0  0
 14 15  1  0  0  0
 14 34  1  0  0  0
 14 35  1  0  0  0
 15 36  1  0  0  0
 15 37  1  0  0  0
 16 17  2  0  0  0
 16 38  1  0  0  0
 17 18  1  0  0  0
 17 19  1  0  0  0
 18 39  1  0  0  0
 18 45  1  0  0  0
 19 20  1  0  0  0
 19 21  1  0  0  0
 20 40  1  0  0  0
 20 41  1  0  0  0
 20 42  1  0  0  0
 21 22  2  0  0  0
 23 43  1  0  0  0
 24 44  1  0  0  0
M  CHG  1  16   1
M  END
> <s_m_entry_id>
1208

> <s_m_entry_name>
Bace_CAT-17i.1

> <s_m_Source_Path>
C:\Users\yujiethinkpad\Desktop\05A\BACE

> <s_m_Source_File>
Bace_CAT-17i.sdf

> <i_m_Source_File_Index>
1

> <s_m_job_name>
align_ligands_7

> <r_user_dG.exp>
-9.473

> <r_m_Molecular_weight>
321.40542

> <i_phase_Input_Structure_Number>
6

> <i_phase_Structure_Number>
6

> <i_phase_Reference_Structure>
36

> <s_phase_Core_SMARTS>
A=A1AA=[A]A1a2aa(aaa2)-a3aaaaa3

> <r_phase_Similarity_to_Reference>
0.745720230230049

> <s_phase_Alignment_Method>
flexible least-squares core

> <s_phase_Alignment_Reason>
stereochemistry change

> <s_m_subgroup_title>
align_ligands_7

> <s_m_subgroupid>
align_ligands_7

> <b_m_subgroup_collapsed>
0

$$$$
