CAT-4l
                    3D
 Schrodinger Suite 2021-2.
 44 47  0  0  1  0            999 V2000
   12.4425   -1.7547    1.9064 C   0  0  0  0  0  0
   12.8518   -2.1887    0.5738 N   0  0  0  0  0  0
   12.0364   -2.3458   -0.4629 C   0  0  0  0  0  0
   10.5959   -2.1094   -0.4372 N   0  0  0  0  0  0
   12.7253   -2.7505   -1.5291 N   0  3  0  0  0  0
   14.1518   -2.8981   -1.2415 C   0  0  2  0  0  0
   14.9899   -1.9814   -2.0826 C   0  0  0  0  0  0
   15.2957   -0.7049   -1.6260 C   0  0  0  0  0  0
   16.0723    0.1444   -2.4053 C   0  0  0  0  0  0
   16.5430   -0.2829   -3.6412 C   0  0  0  0  0  0
   16.2373   -1.5594   -4.0978 C   0  0  0  0  0  0
   15.4607   -2.4087   -3.3185 C   0  0  0  0  0  0
   14.6193   -4.3097   -1.4382 C   0  0  0  0  0  0
   15.9295   -4.5599   -1.8285 C   0  0  0  0  0  0
   16.3626   -5.8679   -2.0107 C   0  0  0  0  0  0
   15.4855   -6.9257   -1.8027 C   0  0  0  0  0  0
   14.1753   -6.6755   -1.4125 C   0  0  0  0  0  0
   13.2286   -7.8172   -1.1880 C   0  0  0  0  0  0
   13.6486   -9.1397   -1.3671 C   0  0  0  0  0  0
   12.8015  -10.1886   -1.1674 N   0  0  0  0  0  0
   11.5271   -9.8923   -0.7855 C   0  0  0  0  0  0
   11.1071   -8.5698   -0.6064 C   0  0  0  0  0  0
   11.9542   -7.5208   -0.8061 N   0  0  0  0  0  0
   13.7422   -5.3675   -1.2302 C   0  0  0  0  0  0
   14.2181   -2.5043    0.2192 C   0  0  0  0  0  0
   15.1922   -2.4521    0.9683 O   0  0  0  0  0  0
   13.3147   -1.7130    2.5588 H   0  0  0  0  0  0
   11.9886   -0.7658    1.8429 H   0  0  0  0  0  0
   11.7187   -2.4614    2.3122 H   0  0  0  0  0  0
   10.0322   -2.2564   -1.2927 H   0  0  0  0  0  0
   12.3154   -2.9366   -2.4373 H   0  0  0  0  0  0
   14.9292   -0.3722   -0.6638 H   0  0  0  0  0  0
   16.3103    1.1383   -2.0498 H   0  0  0  0  0  0
   17.1476    0.3784   -4.2479 H   0  0  0  0  0  0
   16.6038   -1.8921   -5.0600 H   0  0  0  0  0  0
   15.2227   -3.4026   -3.6740 H   0  0  0  0  0  0
   16.6124   -3.7363   -1.9904 H   0  0  0  0  0  0
   17.3827   -6.0626   -2.3145 H   0  0  0  0  0  0
   15.8227   -7.9440   -1.9446 H   0  0  0  0  0  0
   14.6639   -9.3611   -1.6707 H   0  0  0  0  0  0
   10.8439  -10.7163   -0.6235 H   0  0  0  0  0  0
   10.0918   -8.3484   -0.3028 H   0  0  0  0  0  0
   12.7221   -5.1728   -0.9264 H   0  0  0  0  0  0
   10.1385   -1.7948    0.4363 H   0  0  0  0  0  0
  1  2  1  0  0  0
  1 27  1  0  0  0
  1 28  1  0  0  0
  1 29  1  0  0  0
  2  3  1  0  0  0
  2 25  1  0  0  0
  3  4  1  0  0  0
  3  5  2  0  0  0
  4 30  1  0  0  0
  4 44  1  0  0  0
  5  6  1  0  0  0
  5 31  1  0  0  0
  6  7  1  0  0  0
  6 13  1  0  0  0
  6 25  1  0  0  0
  7  8  2  0  0  0
  7 12  1  0  0  0
  8  9  1  0  0  0
  8 32  1  0  0  0
  9 10  2  0  0  0
  9 33  1  0  0  0
 10 11  1  0  0  0
 10 34  1  0  0  0
 11 12  2  0  0  0
 11 35  1  0  0  0
 12 36  1  0  0  0
 13 14  2  0  0  0
 13 24  1  0  0  0
 14 15  1  0  0  0
 14 37  1  0  0  0
 15 16  2  0  0  0
 15 38  1  0  0  0
 16 17  1  0  0  0
 16 39  1  0  0  0
 17 18  1  0  0  0
 17 24  2  0  0  0
 18 19  2  0  0  0
 18 23  1  0  0  0
 19 20  1  0  0  0
 19 40  1  0  0  0
 20 21  2  0  0  0
 21 22  1  0  0  0
 21 41  1  0  0  0
 22 23  2  0  0  0
 22 42  1  0  0  0
 24 43  1  0  0  0
 25 26  2  0  0  0
M  CHG  1   5   1
M  END
> <s_m_entry_id>
1216

> <s_m_entry_name>
Bace_CAT-4l.1

> <s_m_Source_Path>
C:\Users\yujiethinkpad\Desktop\05A\BACE

> <s_m_Source_File>
Bace_CAT-4l.sdf

> <i_m_Source_File_Index>
1

> <s_m_job_name>
align_ligands_7

> <r_user_dG.exp>
-9.343

> <r_m_Molecular_weight>
344.39936

> <i_phase_Input_Structure_Number>
14

> <i_phase_Structure_Number>
14

> <i_phase_Reference_Structure>
36

> <s_phase_Core_SMARTS>
a1aaaaa1A2(A(=A)AA=[A]2)a3aa(aaa3)-a4aaaaa4

> <r_phase_Similarity_to_Reference>
0.834791757659253

> <s_phase_Alignment_Method>
flexible least-squares core

> <s_phase_Alignment_Reason>
stereochemistry change

> <s_m_subgroup_title>
align_ligands_7

> <s_m_subgroupid>
align_ligands_7

> <b_m_subgroup_collapsed>
0

$$$$
