CAT-17d
                    3D
 Schrodinger Suite 2021-2.
 42 45  0  0  1  0            999 V2000
   12.4664   -1.6682    1.6344 C   0  0  0  0  0  0
   12.9736   -2.1759    0.3630 N   0  0  0  0  0  0
   12.2509   -2.3323   -0.7404 C   0  0  0  0  0  0
   10.8295   -2.0212   -0.8604 N   0  0  0  0  0  0
   13.0128   -2.8146   -1.7213 N   0  3  0  0  0  0
   14.3961   -3.0237   -1.2942 C   0  0  1  0  0  0
   14.8014   -4.4643   -1.3957 C   0  0  0  0  0  0
   16.1266   -4.7971   -1.6504 C   0  0  0  0  0  0
   16.5021   -6.1319   -1.7444 C   0  0  0  0  0  0
   15.5525   -7.1339   -1.5838 C   0  0  0  0  0  0
   14.2274   -6.8012   -1.3291 C   0  0  0  0  0  0
   13.2025   -7.8826   -1.1557 C   0  0  0  0  0  0
   13.5693   -9.1229   -0.6338 C   0  0  0  0  0  0
   12.5931  -10.1058   -0.4856 C   0  0  0  0  0  0
   11.2862   -9.8055   -0.8672 C   0  0  0  0  0  0
   10.9152   -8.6019   -1.3768 N   0  0  0  0  0  0
   11.8756   -7.6535   -1.5159 C   0  0  0  0  0  0
   13.8518   -5.4663   -1.2351 C   0  0  0  0  0  0
   15.3581   -2.1860   -2.0834 C   0  0  0  0  0  0
   14.8607   -0.9089   -2.7217 C   0  0  0  0  0  0
   15.7861   -0.8466   -1.5277 C   0  0  0  0  0  0
   14.3475   -2.5755    0.1514 C   0  0  0  0  0  0
   15.2490   -2.5433    0.9876 O   0  0  0  0  0  0
   13.2750   -1.6452    2.3650 H   0  0  0  0  0  0
   12.0755   -0.6605    1.4933 H   0  0  0  0  0  0
   11.6701   -2.3197    1.9942 H   0  0  0  0  0  0
   10.3407   -2.1734   -1.7599 H   0  0  0  0  0  0
   12.6798   -3.0157   -2.6573 H   0  0  0  0  0  0
   16.8659   -4.0170   -1.7754 H   0  0  0  0  0  0
   17.5338   -6.3910   -1.9427 H   0  0  0  0  0  0
   15.8449   -8.1732   -1.6570 H   0  0  0  0  0  0
   14.5943   -9.3184   -0.3489 H   0  0  0  0  0  0
   12.8416  -11.0788   -0.0844 H   0  0  0  0  0  0
   10.5068  -10.5510   -0.7629 H   0  0  0  0  0  0
   11.5727   -6.6961   -1.9229 H   0  0  0  0  0  0
   12.8201   -5.2073   -1.0368 H   0  0  0  0  0  0
   16.0908   -2.7929   -2.6196 H   0  0  0  0  0  0
   13.8133   -0.6278   -2.5924 H   0  0  0  0  0  0
   15.2465   -0.6249   -3.7032 H   0  0  0  0  0  0
   15.3842   -0.5222   -0.5654 H   0  0  0  0  0  0
   16.8173   -0.5192   -1.6762 H   0  0  0  0  0  0
   10.3107   -1.6486   -0.0460 H   0  0  0  0  0  0
  1  2  1  0  0  0
  1 24  1  0  0  0
  1 25  1  0  0  0
  1 26  1  0  0  0
  2  3  1  0  0  0
  2 22  1  0  0  0
  3  4  1  0  0  0
  3  5  2  0  0  0
  4 27  1  0  0  0
  4 42  1  0  0  0
  5  6  1  0  0  0
  5 28  1  0  0  0
  6  7  1  0  0  0
  6 19  1  0  0  0
  6 22  1  0  0  0
  7  8  2  0  0  0
  7 18  1  0  0  0
  8  9  1  0  0  0
  8 29  1  0  0  0
  9 10  2  0  0  0
  9 30  1  0  0  0
 10 11  1  0  0  0
 10 31  1  0  0  0
 11 12  1  0  0  0
 11 18  2  0  0  0
 12 13  2  0  0  0
 12 17  1  0  0  0
 13 14  1  0  0  0
 13 32  1  0  0  0
 14 15  2  0  0  0
 14 33  1  0  0  0
 15 16  1  0  0  0
 15 34  1  0  0  0
 16 17  2  0  0  0
 17 35  1  0  0  0
 18 36  1  0  0  0
 19 20  1  0  0  0
 19 21  1  0  0  0
 19 37  1  0  0  0
 20 21  1  0  0  0
 20 38  1  0  0  0
 20 39  1  0  0  0
 21 40  1  0  0  0
 21 41  1  0  0  0
 22 23  2  0  0  0
M  CHG  1   5   1
M  END
> <s_m_entry_id>
1203

> <s_m_entry_name>
Bace_CAT-17d.1

> <s_m_Source_Path>
C:\Users\yujiethinkpad\Desktop\05A\BACE

> <s_m_Source_File>
Bace_CAT-17d.sdf

> <i_m_Source_File_Index>
1

> <s_m_job_name>
align_ligands_7

> <r_user_dG.exp>
-9.423

> <r_m_Molecular_weight>
307.37833

> <i_phase_Input_Structure_Number>
1

> <i_phase_Structure_Number>
1

> <i_phase_Reference_Structure>
36

> <s_phase_Core_SMARTS>
A=A1AA=[A]A1a2aa(aaa2)-a3aaaaa3

> <r_phase_Similarity_to_Reference>
0.738501668315259

> <s_phase_Alignment_Method>
flexible least-squares core

> <s_phase_Alignment_Reason>
stereochemistry change

> <s_m_subgroup_title>
align_ligands_7

> <s_m_subgroupid>
align_ligands_7

> <b_m_subgroup_collapsed>
0

$$$$
