CAT-17a
                    3D
 Schrodinger Suite 2021-2.
 43 46  0  0  1  0            999 V2000
   12.4642   -1.6557    1.6257 C   0  0  0  0  0  0
   12.9770   -2.1646    0.3570 N   0  0  0  0  0  0
   12.2602   -2.3177   -0.7508 C   0  0  0  0  0  0
   10.8407   -2.0010   -0.8790 N   0  0  0  0  0  0
   13.0261   -2.8023   -1.7275 N   0  3  0  0  0  0
   14.4060   -3.0169   -1.2923 C   0  0  1  0  0  0
   14.8064   -4.4590   -1.3923 C   0  0  0  0  0  0
   16.1317   -4.7967   -1.6393 C   0  0  0  0  0  0
   16.5027   -6.1329   -1.7319 C   0  0  0  0  0  0
   15.5483   -7.1314   -1.5775 C   0  0  0  0  0  0
   14.2230   -6.7937   -1.3305 C   0  0  0  0  0  0
   13.1929   -7.8713   -1.1639 C   0  0  0  0  0  0
   11.8672   -7.6350   -1.5329 C   0  0  0  0  0  0
   10.9094   -8.6377   -1.3778 C   0  0  0  0  0  0
    9.2715   -8.3443   -1.8342 Cl  0  0  0  0  0  0
   11.2758   -9.8771   -0.8538 C   0  0  0  0  0  0
   12.5995  -10.1150   -0.4847 C   0  0  0  0  0  0
   13.0518  -11.6487    0.1635 Cl  0  0  0  0  0  0
   13.5579   -9.1129   -0.6395 C   0  0  0  0  0  0
   13.8520   -5.4575   -1.2379 C   0  0  0  0  0  0
   15.3759   -2.1825   -2.0752 C   0  0  0  0  0  0
   15.0978   -1.9193   -3.5379 C   0  0  0  0  0  0
   14.9529   -0.8033   -2.5281 C   0  0  0  0  0  0
   14.3505   -2.5694    0.1533 C   0  0  0  0  0  0
   15.2471   -2.5412    0.9949 O   0  0  0  0  0  0
   13.2685   -1.6363    2.3611 H   0  0  0  0  0  0
   12.0780   -0.6465    1.4829 H   0  0  0  0  0  0
   11.6632   -2.3045    1.9803 H   0  0  0  0  0  0
   10.3567   -2.1508   -1.7815 H   0  0  0  0  0  0
   12.6978   -3.0015   -2.6655 H   0  0  0  0  0  0
   16.8747   -4.0194   -1.7595 H   0  0  0  0  0  0
   17.5345   -6.3959   -1.9242 H   0  0  0  0  0  0
   15.8371   -8.1717   -1.6497 H   0  0  0  0  0  0
   11.5807   -6.6753   -1.9392 H   0  0  0  0  0  0
   10.5348  -10.6523   -0.7339 H   0  0  0  0  0  0
   14.5831   -9.2998   -0.3526 H   0  0  0  0  0  0
   12.8201   -5.1946   -1.0456 H   0  0  0  0  0  0
   16.4081   -2.3387   -1.7545 H   0  0  0  0  0  0
   15.9360   -1.8919   -4.2374 H   0  0  0  0  0  0
   14.1976   -2.3432   -3.9882 H   0  0  0  0  0  0
   13.9517   -0.4488   -2.2739 H   0  0  0  0  0  0
   15.6901    0.0025   -2.5232 H   0  0  0  0  0  0
   10.3185   -1.6269   -0.0675 H   0  0  0  0  0  0
  1  2  1  0  0  0
  1 26  1  0  0  0
  1 27  1  0  0  0
  1 28  1  0  0  0
  2  3  1  0  0  0
  2 24  1  0  0  0
  3  4  1  0  0  0
  3  5  2  0  0  0
  4 29  1  0  0  0
  4 43  1  0  0  0
  5  6  1  0  0  0
  5 30  1  0  0  0
  6  7  1  0  0  0
  6 21  1  0  0  0
  6 24  1  0  0  0
  7  8  2  0  0  0
  7 20  1  0  0  0
  8  9  1  0  0  0
  8 31  1  0  0  0
  9 10  2  0  0  0
  9 32  1  0  0  0
 10 11  1  0  0  0
 10 33  1  0  0  0
 11 12  1  0  0  0
 11 20  2  0  0  0
 12 13  2  0  0  0
 12 19  1  0  0  0
 13 14  1  0  0  0
 13 34  1  0  0  0
 14 15  1  0  0  0
 14 16  2  0  0  0
 16 17  1  0  0  0
 16 35  1  0  0  0
 17 18  1  0  0  0
 17 19  2  0  0  0
 19 36  1  0  0  0
 20 37  1  0  0  0
 21 22  1  0  0  0
 21 23  1  0  0  0
 21 38  1  0  0  0
 22 23  1  0  0  0
 22 39  1  0  0  0
 22 40  1  0  0  0
 23 41  1  0  0  0
 23 42  1  0  0  0
 24 25  2  0  0  0
M  CHG  1   5   1
M  END
> <s_m_entry_id>
1235

> <s_m_entry_name>
Bace_CAT-17a.1

> <s_m_Source_Path>
C:\Users\yujiethinkpad\Desktop\05A\BACE

> <s_m_Source_File>
Bace_CAT-17a.sdf

> <i_m_Source_File_Index>
1

> <s_m_job_name>
align_ligands_7

> <r_user_dG.exp>
-10.733

> <r_m_Molecular_weight>
375.28081

> <i_phase_Input_Structure_Number>
33

> <i_phase_Structure_Number>
33

> <i_phase_Reference_Structure>
36

> <s_phase_Core_SMARTS>
A=A1AA=[A]A1a2aa(aaa2)-a3aaaaa3

> <r_phase_Similarity_to_Reference>
0.757850594457386

> <s_phase_Alignment_Method>
flexible least-squares core

> <s_phase_Alignment_Reason>
stereochemistry change

> <s_m_subgroup_title>
align_ligands_7

> <s_m_subgroupid>
align_ligands_7

> <b_m_subgroup_collapsed>
0

$$$$
