CAT-4n
                    3D
 Schrodinger Suite 2021-2.
 46 49  0  0  1  0            999 V2000
   13.8073   -1.4681    2.4843 C   0  0  0  0  0  0
   13.7427   -2.0264    1.1368 N   0  0  0  0  0  0
   12.6237   -2.2817    0.4682 C   0  0  0  0  0  0
   11.2747   -2.0447    0.9738 N   0  0  0  0  0  0
   12.9126   -2.7855   -0.7310 N   0  3  0  0  0  0
   14.3543   -2.9042   -0.9474 C   0  0  2  0  0  0
   14.8167   -2.0712   -2.1059 C   0  0  0  0  0  0
   15.2189   -0.7568   -1.9000 C   0  0  0  0  0  0
   15.6474    0.0151   -2.9735 C   0  0  0  0  0  0
   15.6737   -0.5274   -4.2528 C   0  0  0  0  0  0
   15.2715   -1.8417   -4.4587 C   0  0  0  0  0  0
   14.8430   -2.6136   -3.3853 C   0  0  0  0  0  0
   14.7715   -4.3279   -1.1687 C   0  0  0  0  0  0
   16.1089   -4.6335   -1.3918 C   0  0  0  0  0  0
   16.4955   -5.9526   -1.5968 C   0  0  0  0  0  0
   15.5448   -6.9662   -1.5788 C   0  0  0  0  0  0
   14.2074   -6.6607   -1.3557 C   0  0  0  0  0  0
   13.1813   -7.7546   -1.3362 C   0  0  0  0  0  0
   11.8715   -7.4926   -1.7345 C   0  0  0  0  0  0
   10.9107   -8.4508   -1.7332 N   0  0  0  0  0  0
   11.2638   -9.6978   -1.3256 C   0  0  0  0  0  0
   12.5530  -10.0327   -0.9139 C   0  0  0  0  0  0
   12.8784  -11.4296   -0.4750 C   0  0  0  0  0  0
   13.1594  -12.4981   -0.1313 N   0  0  0  0  0  0
   13.5299   -9.0394   -0.9201 C   0  0  0  0  0  0
   13.8208   -5.3415   -1.1507 C   0  0  0  0  0  0
   14.9105   -2.3735    0.3572 C   0  0  0  0  0  0
   16.0818   -2.2498    0.7115 O   0  0  0  0  0  0
   14.8499   -1.3641    2.7848 H   0  0  0  0  0  0
   13.3266   -0.4899    2.4957 H   0  0  0  0  0  0
   13.2937   -2.1334    3.1782 H   0  0  0  0  0  0
   10.4543   -2.2727    0.3855 H   0  0  0  0  0  0
   12.2193   -3.0572   -1.4187 H   0  0  0  0  0  0
   15.1984   -0.3345   -0.9040 H   0  0  0  0  0  0
   15.9605    1.0383   -2.8131 H   0  0  0  0  0  0
   16.0073    0.0736   -5.0885 H   0  0  0  0  0  0
   15.2920   -2.2640   -5.4547 H   0  0  0  0  0  0
   14.5299   -3.6369   -3.5456 H   0  0  0  0  0  0
   16.8491   -3.8443   -1.4058 H   0  0  0  0  0  0
   17.5367   -6.1905   -1.7705 H   0  0  0  0  0  0
   15.8458   -7.9932   -1.7384 H   0  0  0  0  0  0
   11.5828   -6.5006   -2.0608 H   0  0  0  0  0  0
   10.4844  -10.4505   -1.3308 H   0  0  0  0  0  0
   14.5415   -9.2608   -0.6076 H   0  0  0  0  0  0
   12.7796   -5.1037   -0.9770 H   0  0  0  0  0  0
   11.1389   -1.6488    1.9204 H   0  0  0  0  0  0
  1  2  1  0  0  0
  1 29  1  0  0  0
  1 30  1  0  0  0
  1 31  1  0  0  0
  2  3  1  0  0  0
  2 27  1  0  0  0
  3  4  1  0  0  0
  3  5  2  0  0  0
  4 32  1  0  0  0
  4 46  1  0  0  0
  5  6  1  0  0  0
  5 33  1  0  0  0
  6  7  1  0  0  0
  6 13  1  0  0  0
  6 27  1  0  0  0
  7  8  2  0  0  0
  7 12  1  0  0  0
  8  9  1  0  0  0
  8 34  1  0  0  0
  9 10  2  0  0  0
  9 35  1  0  0  0
 10 11  1  0  0  0
 10 36  1  0  0  0
 11 12  2  0  0  0
 11 37  1  0  0  0
 12 38  1  0  0  0
 13 14  2  0  0  0
 13 26  1  0  0  0
 14 15  1  0  0  0
 14 39  1  0  0  0
 15 16  2  0  0  0
 15 40  1  0  0  0
 16 17  1  0  0  0
 16 41  1  0  0  0
 17 18  1  0  0  0
 17 26  2  0  0  0
 18 19  2  0  0  0
 18 25  1  0  0  0
 19 20  1  0  0  0
 19 42  1  0  0  0
 20 21  2  0  0  0
 21 22  1  0  0  0
 21 43  1  0  0  0
 22 23  1  0  0  0
 22 25  2  0  0  0
 23 24  3  0  0  0
 25 44  1  0  0  0
 26 45  1  0  0  0
 27 28  2  0  0  0
M  CHG  1   5   1
M  END
> <s_m_entry_id>
1218

> <s_m_entry_name>
Bace_CAT-4n.1

> <s_m_Source_Path>
C:\Users\yujiethinkpad\Desktop\05A\BACE

> <s_m_Source_File>
Bace_CAT-4n.sdf

> <i_m_Source_File_Index>
1

> <s_m_job_name>
align_ligands_7

> <r_user_dG.exp>
-9.093

> <r_m_Molecular_weight>
368.42166

> <i_phase_Input_Structure_Number>
16

> <i_phase_Structure_Number>
16

> <i_phase_Reference_Structure>
36

> <s_phase_Core_SMARTS>
a1aaaaa1A2(A(=A)AA=[A]2)a3aa(aaa3)-a4aaaaa4

> <r_phase_Similarity_to_Reference>
0.783310122227572

> <s_phase_Alignment_Method>
flexible least-squares core

> <s_phase_Alignment_Reason>
stereochemistry change

> <s_m_subgroup_title>
align_ligands_7

> <s_m_subgroupid>
align_ligands_7

> <b_m_subgroup_collapsed>
0

$$$$
