CAT-13e
                    3D
 Schrodinger Suite 2021-2.
 46 49  0  0  1  0            999 V2000
   12.4655   -1.6566    1.6274 C   0  0  0  0  0  0
   12.9775   -2.1651    0.3582 N   0  0  0  0  0  0
   12.2599   -2.3184   -0.7490 C   0  0  0  0  0  0
   10.8401   -2.0025   -0.8759 N   0  0  0  0  0  0
   13.0252   -2.8025   -1.7264 N   0  3  0  0  0  0
   14.4055   -3.0164   -1.2924 C   0  0  1  0  0  0
   14.8066   -4.4583   -1.3928 C   0  0  0  0  0  0
   16.1320   -4.7952   -1.6410 C   0  0  0  0  0  0
   16.5036   -6.1312   -1.7341 C   0  0  0  0  0  0
   15.5499   -7.1302   -1.5790 C   0  0  0  0  0  0
   14.2246   -6.7933   -1.3308 C   0  0  0  0  0  0
   13.1953   -7.8715   -1.1634 C   0  0  0  0  0  0
   13.5517   -9.1115   -0.6419 C   0  0  0  0  0  0
   12.5935  -10.1109   -0.4877 C   0  0  0  0  0  0
   11.2706   -9.8790   -0.8534 C   0  0  0  0  0  0
   10.9136   -8.6400   -1.3746 C   0  0  0  0  0  0
    9.2771   -8.3391   -1.8322 Cl  0  0  0  0  0  0
   11.8718   -7.6419   -1.5285 C   0  0  0  0  0  0
   13.8530   -5.4573   -1.2377 C   0  0  0  0  0  0
   15.3743   -2.1814   -2.0761 C   0  0  0  0  0  0
   15.2333   -2.2567   -3.6025 C   0  0  0  0  0  0
   15.5184   -0.7491   -3.6375 C   0  0  0  0  0  0
   15.0302   -0.6896   -2.1838 C   0  0  0  0  0  0
   14.3511   -2.5690    0.1533 C   0  0  0  0  0  0
   15.2484   -2.5404    0.9941 O   0  0  0  0  0  0
   13.2704   -1.6368    2.3621 H   0  0  0  0  0  0
   11.6652   -2.3058    1.9826 H   0  0  0  0  0  0
   12.0786   -0.6475    1.4850 H   0  0  0  0  0  0
   10.3554   -2.1524   -1.7780 H   0  0  0  0  0  0
   12.6962   -3.0019   -2.6641 H   0  0  0  0  0  0
   16.8745   -4.0175   -1.7618 H   0  0  0  0  0  0
   17.5354   -6.3936   -1.9274 H   0  0  0  0  0  0
   15.8392   -8.1704   -1.6515 H   0  0  0  0  0  0
   14.5779   -9.3003   -0.3550 H   0  0  0  0  0  0
   12.8777  -11.0723   -0.0817 H   0  0  0  0  0  0
   10.5262  -10.6533   -0.7343 H   0  0  0  0  0  0
   11.5842   -6.6825   -1.9344 H   0  0  0  0  0  0
   12.8211   -5.1950   -1.0445 H   0  0  0  0  0  0
   16.3856   -2.3796   -1.7123 H   0  0  0  0  0  0
   14.2312   -2.5282   -3.9439 H   0  0  0  0  0  0
   15.9626   -2.8877   -4.1139 H   0  0  0  0  0  0
   16.5749   -0.4988   -3.7627 H   0  0  0  0  0  0
   14.9325   -0.1739   -4.3568 H   0  0  0  0  0  0
   13.9644   -0.4702   -2.0809 H   0  0  0  0  0  0
   15.5917   -0.0262   -1.5234 H   0  0  0  0  0  0
   10.3184   -1.6288   -0.0639 H   0  0  0  0  0  0
  1  2  1  0  0  0
  1 26  1  0  0  0
  1 27  1  0  0  0
  1 28  1  0  0  0
  2  3  1  0  0  0
  2 24  1  0  0  0
  3  4  1  0  0  0
  3  5  2  0  0  0
  4 29  1  0  0  0
  4 46  1  0  0  0
  5  6  1  0  0  0
  5 30  1  0  0  0
  6  7  1  0  0  0
  6 20  1  0  0  0
  6 24  1  0  0  0
  7  8  2  0  0  0
  7 19  1  0  0  0
  8  9  1  0  0  0
  8 31  1  0  0  0
  9 10  2  0  0  0
  9 32  1  0  0  0
 10 11  1  0  0  0
 10 33  1  0  0  0
 11 12  1  0  0  0
 11 19  2  0  0  0
 12 13  2  0  0  0
 12 18  1  0  0  0
 13 14  1  0  0  0
 13 34  1  0  0  0
 14 15  2  0  0  0
 14 35  1  0  0  0
 15 16  1  0  0  0
 15 36  1  0  0  0
 16 17  1  0  0  0
 16 18  2  0  0  0
 18 37  1  0  0  0
 19 38  1  0  0  0
 20 21  1  0  0  0
 20 23  1  0  0  0
 20 39  1  0  0  0
 21 22  1  0  0  0
 21 40  1  0  0  0
 21 41  1  0  0  0
 22 23  1  0  0  0
 22 42  1  0  0  0
 22 43  1  0  0  0
 23 44  1  0  0  0
 23 45  1  0  0  0
 24 25  2  0  0  0
M  CHG  1   5   1
M  END
> <s_m_entry_id>
1225

> <s_m_entry_name>
Bace_CAT-13e.1

> <s_m_Source_Path>
C:\Users\yujiethinkpad\Desktop\05A\BACE

> <s_m_Source_File>
Bace_CAT-13e.sdf

> <i_m_Source_File_Index>
1

> <s_m_job_name>
align_ligands_7

> <r_user_dG.exp>
-9.963

> <r_m_Molecular_weight>
354.86287

> <i_phase_Input_Structure_Number>
23

> <i_phase_Structure_Number>
23

> <i_phase_Reference_Structure>
36

> <s_phase_Core_SMARTS>
A=A1AA=[A]A1a2aa(aaa2)-a3aaaaa3

> <r_phase_Similarity_to_Reference>
0.808874202875114

> <s_phase_Alignment_Method>
flexible least-squares core

> <s_phase_Alignment_Reason>
stereochemistry change

> <s_m_subgroup_title>
align_ligands_7

> <s_m_subgroupid>
align_ligands_7

> <b_m_subgroup_collapsed>
0

$$$$
