CAT-4a
                    3D
 Schrodinger Suite 2021-2.
 46 49  0  0  1  0            999 V2000
   12.2929   -1.7320    1.8035 C   0  0  0  0  0  0
   12.7536   -2.1780    0.4919 N   0  0  0  0  0  0
   11.9759   -2.3639   -0.5688 C   0  0  0  0  0  0
   10.5317   -2.1517   -0.5945 N   0  0  0  0  0  0
   12.7067   -2.7721   -1.6055 N   0  3  0  0  0  0
   14.1251   -2.8911   -1.2686 C   0  0  2  0  0  0
   14.9755   -1.9725   -2.0949 C   0  0  0  0  0  0
   15.7532   -1.0010   -1.4761 C   0  0  0  0  0  0
   16.5412   -0.1499   -2.2418 C   0  0  0  0  0  0
   16.5515   -0.2702   -3.6263 C   0  0  0  0  0  0
   15.7738   -1.2418   -4.2452 C   0  0  0  0  0  0
   14.9858   -2.0929   -3.4795 C   0  0  0  0  0  0
   14.6222   -4.2973   -1.4286 C   0  0  0  0  0  0
   15.9487   -4.5306   -1.7714 C   0  0  0  0  0  0
   16.4093   -5.8335   -1.9196 C   0  0  0  0  0  0
   15.5433   -6.9031   -1.7251 C   0  0  0  0  0  0
   14.2168   -6.6697   -1.3823 C   0  0  0  0  0  0
   13.2822   -7.8240   -1.1723 C   0  0  0  0  0  0
   11.9272   -7.6796   -1.4455 C   0  0  0  0  0  0
   11.0612   -8.7492   -1.2509 C   0  0  0  0  0  0
   11.5503   -9.9631   -0.7832 C   0  0  0  0  0  0
   12.9054  -10.1075   -0.5100 C   0  0  0  0  0  0
   13.7713   -9.0380   -0.7045 C   0  0  0  0  0  0
   13.7562   -5.3668   -1.2340 C   0  0  0  0  0  0
   14.1360   -2.4754    0.1875 C   0  0  0  0  0  0
   15.0835   -2.3958    0.9677 O   0  0  0  0  0  0
   13.1420   -1.6661    2.4838 H   0  0  0  0  0  0
   11.8250   -0.7520    1.7103 H   0  0  0  0  0  0
   11.5677   -2.4451    2.1956 H   0  0  0  0  0  0
    9.9994   -2.3207   -1.4659 H   0  0  0  0  0  0
   12.3305   -2.9782   -2.5238 H   0  0  0  0  0  0
   15.7452   -0.9073   -0.3981 H   0  0  0  0  0  0
   17.1466    0.6065   -1.7599 H   0  0  0  0  0  0
   17.1650    0.3924   -4.2225 H   0  0  0  0  0  0
   15.7818   -1.3355   -5.3232 H   0  0  0  0  0  0
   14.3804   -2.8493   -3.9613 H   0  0  0  0  0  0
   16.6229   -3.6979   -1.9228 H   0  0  0  0  0  0
   17.4420   -6.0152   -2.1865 H   0  0  0  0  0  0
   15.9019   -7.9174   -1.8405 H   0  0  0  0  0  0
   11.5464   -6.7345   -1.8096 H   0  0  0  0  0  0
   10.0063   -8.6368   -1.4636 H   0  0  0  0  0  0
   10.8762  -10.7958   -0.6317 H   0  0  0  0  0  0
   13.2862  -11.0526   -0.1458 H   0  0  0  0  0  0
   14.8263   -9.1504   -0.4918 H   0  0  0  0  0  0
   12.7235   -5.1851   -0.9671 H   0  0  0  0  0  0
   10.0402   -1.8325    0.2586 H   0  0  0  0  0  0
  1  2  1  0  0  0
  1 27  1  0  0  0
  1 28  1  0  0  0
  1 29  1  0  0  0
  2  3  1  0  0  0
  2 25  1  0  0  0
  3  4  1  0  0  0
  3  5  2  0  0  0
  4 30  1  0  0  0
  4 46  1  0  0  0
  5  6  1  0  0  0
  5 31  1  0  0  0
  6  7  1  0  0  0
  6 13  1  0  0  0
  6 25  1  0  0  0
  7  8  2  0  0  0
  7 12  1  0  0  0
  8  9  1  0  0  0
  8 32  1  0  0  0
  9 10  2  0  0  0
  9 33  1  0  0  0
 10 11  1  0  0  0
 10 34  1  0  0  0
 11 12  2  0  0  0
 11 35  1  0  0  0
 12 36  1  0  0  0
 13 14  2  0  0  0
 13 24  1  0  0  0
 14 15  1  0  0  0
 14 37  1  0  0  0
 15 16  2  0  0  0
 15 38  1  0  0  0
 16 17  1  0  0  0
 16 39  1  0  0  0
 17 18  1  0  0  0
 17 24  2  0  0  0
 18 19  2  0  0  0
 18 23  1  0  0  0
 19 20  1  0  0  0
 19 40  1  0  0  0
 20 21  2  0  0  0
 20 41  1  0  0  0
 21 22  1  0  0  0
 21 42  1  0  0  0
 22 23  2  0  0  0
 22 43  1  0  0  0
 23 44  1  0  0  0
 24 45  1  0  0  0
 25 26  2  0  0  0
M  CHG  1   5   1
M  END
> <s_m_entry_id>
1210

> <s_m_entry_name>
Bace_CAT-4a.1

> <s_m_Source_Path>
C:\Users\yujiethinkpad\Desktop\05A\BACE

> <s_m_Source_File>
Bace_CAT-4a.sdf

> <i_m_Source_File_Index>
1

> <s_m_job_name>
align_ligands_7

> <r_user_dG.exp>
-7.933

> <r_m_Molecular_weight>
342.4242

> <i_phase_Input_Structure_Number>
8

> <i_phase_Structure_Number>
8

> <i_phase_Reference_Structure>
36

> <s_phase_Core_SMARTS>
a1aaaaa1A2(A(=A)AA=[A]2)a3aa(aaa3)-a4aaaaa4

> <r_phase_Similarity_to_Reference>
0.803046468511761

> <s_phase_Alignment_Method>
flexible least-squares core

> <s_phase_Alignment_Reason>
stereochemistry change

> <s_m_subgroup_title>
align_ligands_7

> <s_m_subgroupid>
align_ligands_7

> <b_m_subgroup_collapsed>
0

$$$$
