CAT-13m
                    3D
 Schrodinger Suite 2021-2.
 44 47  0  0  1  0            999 V2000
   12.4451   -1.7646    1.9149 C   0  0  0  0  0  0
   12.8540   -2.1932    0.5804 N   0  0  0  0  0  0
   12.0375   -2.3510   -0.4553 C   0  0  0  0  0  0
   10.5960   -2.1208   -0.4265 N   0  0  0  0  0  0
   12.7263   -2.7498   -1.5238 N   0  3  0  0  0  0
   14.1540   -2.8920   -1.2390 C   0  0  2  0  0  0
   14.9867   -1.9695   -2.0790 C   0  0  0  0  0  0
   15.8102   -1.0054   -1.4990 C   0  0  0  0  0  0
   16.5704   -0.1625   -2.2482 N   0  0  0  0  0  0
   16.4918   -0.3021   -3.5972 C   0  0  0  0  0  0
   15.7181   -1.2115   -4.2452 N   0  0  0  0  0  0
   14.9685   -2.0414   -3.4713 C   0  0  0  0  0  0
   14.6271   -4.3011   -1.4404 C   0  0  0  0  0  0
   15.9378   -4.5445   -1.8335 C   0  0  0  0  0  0
   16.3762   -5.8501   -2.0201 C   0  0  0  0  0  0
   15.5040   -6.9123   -1.8135 C   0  0  0  0  0  0
   14.1934   -6.6688   -1.4204 C   0  0  0  0  0  0
   13.2520   -7.8152   -1.1974 C   0  0  0  0  0  0
   13.7323   -9.0485   -0.7674 C   0  0  0  0  0  0
   12.8556  -10.1113   -0.5613 C   0  0  0  0  0  0
   11.4909   -9.9500   -0.7832 C   0  0  0  0  0  0
   11.0101   -8.7179   -1.2129 C   0  0  0  0  0  0
    9.3205   -8.5042   -1.4918 Cl  0  0  0  0  0  0
   11.8869   -7.6563   -1.4187 C   0  0  0  0  0  0
   13.7549   -5.3632   -1.2338 C   0  0  0  0  0  0
   14.2210   -2.5020    0.2227 C   0  0  0  0  0  0
   15.1962   -2.4476    0.9703 O   0  0  0  0  0  0
   13.3183   -1.7210    2.5659 H   0  0  0  0  0  0
   11.9869   -0.7775    1.8550 H   0  0  0  0  0  0
   11.7250   -2.4755    2.3201 H   0  0  0  0  0  0
   10.0315   -2.2680   -1.2814 H   0  0  0  0  0  0
   12.3157   -2.9352   -2.4317 H   0  0  0  0  0  0
   15.8656   -0.9023   -0.4214 H   0  0  0  0  0  0
   17.0944    0.3656   -4.2051 H   0  0  0  0  0  0
   14.3476   -2.7709   -3.9785 H   0  0  0  0  0  0
   16.6169   -3.7176   -1.9944 H   0  0  0  0  0  0
   17.3966   -6.0396   -2.3262 H   0  0  0  0  0  0
   15.8454   -7.9287   -1.9588 H   0  0  0  0  0  0
   14.7918   -9.1826   -0.5925 H   0  0  0  0  0  0
   13.2360  -11.0670   -0.2270 H   0  0  0  0  0  0
   10.8096  -10.7736   -0.6237 H   0  0  0  0  0  0
   11.5032   -6.7028   -1.7526 H   0  0  0  0  0  0
   12.7345   -5.1737   -0.9277 H   0  0  0  0  0  0
   10.1388   -1.8106    0.4486 H   0  0  0  0  0  0
  1  2  1  0  0  0
  1 28  1  0  0  0
  1 29  1  0  0  0
  1 30  1  0  0  0
  2  3  1  0  0  0
  2 26  1  0  0  0
  3  4  1  0  0  0
  3  5  2  0  0  0
  4 31  1  0  0  0
  4 44  1  0  0  0
  5  6  1  0  0  0
  5 32  1  0  0  0
  6  7  1  0  0  0
  6 13  1  0  0  0
  6 26  1  0  0  0
  7  8  2  0  0  0
  7 12  1  0  0  0
  8  9  1  0  0  0
  8 33  1  0  0  0
  9 10  2  0  0  0
 10 11  1  0  0  0
 10 34  1  0  0  0
 11 12  2  0  0  0
 12 35  1  0  0  0
 13 14  2  0  0  0
 13 25  1  0  0  0
 14 15  1  0  0  0
 14 36  1  0  0  0
 15 16  2  0  0  0
 15 37  1  0  0  0
 16 17  1  0  0  0
 16 38  1  0  0  0
 17 18  1  0  0  0
 17 25  2  0  0  0
 18 19  2  0  0  0
 18 24  1  0  0  0
 19 20  1  0  0  0
 19 39  1  0  0  0
 20 21  2  0  0  0
 20 40  1  0  0  0
 21 22  1  0  0  0
 21 41  1  0  0  0
 22 23  1  0  0  0
 22 24  2  0  0  0
 24 42  1  0  0  0
 25 43  1  0  0  0
 26 27  2  0  0  0
M  CHG  1   5   1
M  END
> <s_m_entry_id>
1232

> <s_m_entry_name>
Bace_CAT-13m.1

> <s_m_Source_Path>
C:\Users\yujiethinkpad\Desktop\05A\BACE

> <s_m_Source_File>
Bace_CAT-13m.sdf

> <i_m_Source_File_Index>
1

> <s_m_job_name>
align_ligands_7

> <r_user_dG.exp>
-8.763

> <r_m_Molecular_weight>
378.84439

> <i_phase_Input_Structure_Number>
30

> <i_phase_Structure_Number>
30

> <i_phase_Reference_Structure>
36

> <s_phase_Core_SMARTS>
a1aaaaa1A2(A(=A)AA=[A]2)a3aa(aaa3)-a4aaaaa4

> <r_phase_Similarity_to_Reference>
0.787798380239235

> <s_phase_Alignment_Method>
flexible least-squares core

> <s_phase_Alignment_Reason>
stereochemistry change

> <s_m_subgroup_title>
align_ligands_7

> <s_m_subgroupid>
align_ligands_7

> <b_m_subgroup_collapsed>
0

$$$$
