/home/yujie/leadopt/data/result/selection/sEH/lig_6a.sdf:1
                    3D
 Schrodinger Suite 2021-2.
 49 52  0  0  1  0            999 V2000
   -1.5604  -15.4675   25.6578 O   0  0  0  0  0  0
   -1.1693  -15.0208   26.7278 C   0  0  0  0  0  0
   -0.0786  -14.0114   26.7359 C   0  0  0  0  0  0
    0.7196  -13.8340   25.5748 C   0  0  0  0  0  0
    1.6898  -12.8199   25.4965 C   0  0  0  0  0  0
    1.8248  -12.0110   26.6180 C   0  0  0  0  0  0
    2.6470  -10.9284   26.8619 N   0  0  0  0  0  0
    3.6299  -10.3517   25.9511 C   0  0  0  0  0  0
    5.0692  -10.7909   26.1739 C   0  0  0  0  0  0
    6.0762  -10.2516   25.3577 C   0  0  0  0  0  0
    7.4042  -10.6879   25.4845 C   0  0  0  0  0  0
    7.7309  -11.6640   26.4362 C   0  0  0  0  0  0
    6.7394  -12.1852   27.2751 C   0  0  0  0  0  0
    5.4154  -11.7511   27.1437 C   0  0  0  0  0  0
    2.4269  -10.5454   28.1200 C   0  0  0  0  0  0
    1.4517  -11.2633   28.6633 N   0  0  0  0  0  0
    3.0780   -9.7327   28.7012 O   0  0  0  0  0  0
    1.0684  -12.2017   27.7476 C   0  0  0  0  0  0
    0.0939  -13.1767   27.8519 C   0  0  0  0  0  0
   -1.7167  -15.3682   27.8968 N   0  0  0  0  0  0
   -2.9433  -16.1447   27.9843 C   0  0  0  0  0  0
   -2.7827  -17.6583   27.8880 C   0  0  0  0  0  0
   -3.8407  -18.4861   27.4398 C   0  0  0  0  0  0
   -5.1009  -17.9097   26.8113 C   0  0  0  0  0  0
   -5.7347  -17.1589   27.6971 F   0  0  0  0  0  0
   -4.8086  -17.1734   25.7445 F   0  0  0  0  0  0
   -5.9302  -18.8630   26.4090 F   0  0  0  0  0  0
   -3.7349  -19.8829   27.6000 C   0  0  0  0  0  0
   -2.5790  -20.4672   28.1351 C   0  0  0  0  0  0
   -1.4964  -19.6498   28.4821 C   0  0  0  0  0  0
   -1.5997  -18.2571   28.3551 C   0  0  0  0  0  0
    0.5782  -14.4662   24.7117 H   0  0  0  0  0  0
    2.2850  -12.6741   24.6071 H   0  0  0  0  0  0
    3.3537  -10.5896   24.9233 H   0  0  0  0  0  0
    3.5789   -9.2639   26.0303 H   0  0  0  0  0  0
    5.8257   -9.5184   24.6066 H   0  0  0  0  0  0
    8.1694  -10.2767   24.8423 H   0  0  0  0  0  0
    8.7510  -12.0063   26.5357 H   0  0  0  0  0  0
    6.9948  -12.9277   28.0171 H   0  0  0  0  0  0
    4.6742  -12.1873   27.7954 H   0  0  0  0  0  0
    1.1055  -11.2071   29.6063 H   0  0  0  0  0  0
   -0.5161  -13.2520   28.7376 H   0  0  0  0  0  0
   -1.3573  -14.9689   28.7647 H   0  0  0  0  0  0
   -3.6504  -15.7669   27.2489 H   0  0  0  0  0  0
   -3.3897  -15.9275   28.9564 H   0  0  0  0  0  0
   -4.5455  -20.5304   27.3005 H   0  0  0  0  0  0
   -2.5165  -21.5408   28.2411 H   0  0  0  0  0  0
   -0.5858  -20.0821   28.8767 H   0  0  0  0  0  0
   -0.7784  -17.6445   28.6964 H   0  0  0  0  0  0
  1  2  2  0  0  0
  2  3  1  0  0  0
  2 20  1  0  0  0
  3 19  1  0  0  0
  3  4  2  0  0  0
  4  5  1  0  0  0
  4 32  1  0  0  0
  5  6  2  0  0  0
  5 33  1  0  0  0
  6  7  1  0  0  0
  6 18  1  0  0  0
  7  8  1  0  0  0
  7 15  1  0  0  0
  8  9  1  0  0  0
  8 34  1  0  0  0
  8 35  1  0  0  0
  9 14  1  0  0  0
  9 10  2  0  0  0
 10 11  1  0  0  0
 10 36  1  0  0  0
 11 12  2  0  0  0
 11 37  1  0  0  0
 12 13  1  0  0  0
 12 38  1  0  0  0
 13 14  2  0  0  0
 13 39  1  0  0  0
 14 40  1  0  0  0
 15 16  1  0  0  0
 15 17  2  0  0  0
 16 18  1  0  0  0
 16 41  1  0  0  0
 18 19  2  0  0  0
 19 42  1  0  0  0
 20 21  1  0  0  0
 20 43  1  0  0  0
 21 22  1  0  0  0
 21 44  1  0  0  0
 21 45  1  0  0  0
 22 31  1  0  0  0
 22 23  2  0  0  0
 23 24  1  0  0  0
 23 28  1  0  0  0
 24 25  1  0  0  0
 24 26  1  0  0  0
 24 27  1  0  0  0
 28 29  2  0  0  0
 28 46  1  0  0  0
 29 30  1  0  0  0
 29 47  1  0  0  0
 30 31  2  0  0  0
 30 48  1  0  0  0
 31 49  1  0  0  0
M  END
> <s_m_entry_id>
99

> <s_m_entry_name>
sEH_lig_6a.1

> <s_m_Source_Path>
C:\Users\yujiethinkpad\Desktop\selection\selection\sEH_pose

> <s_m_Source_File>
sEH_lig_6a.sdf

> <i_m_Source_File_Index>
1

> <i_lp_mmshare_version>
51139

> <i_f3d_flags>
0

> <s_epik_input>
W2NIXTFbY0hdW2NIXVtjSF1jKEMoRikoRilGKWMxW0NIMl1bTkhdQyg9TyljKFtjSF1bY0hdMilbY0hdYyhjMjMpW25IXWMoPU8pbjNbQ0gyXWM0W2NIXVtjSF1bY0hdW2NIXVtjSF00

> <s_epik_cmdline>
J2VwaWtfcHl0aG9uJywgJy1waHQnLCAnMi4wJywgJy1waCcsICc3LjAnLCAnLXRuJywgJzgnLCAnLW1hJywgJzIwMCcsICctaW1hZScsICc8aW5maWxlLm1hZT4nLCAnLW9tYWUnLCAnPG91dGZpbGUubWFlPic=

> <r_epik_Ionization_Penalty>
  0.0000

> <r_epik_Ionization_Penalty_Charging>
  0.0000

> <r_epik_Ionization_Penalty_Neutral>
  0.0000

> <r_epik_State_Penalty>
  0.0000

> <r_epik_Charging_Adjusted_Penalty>
2.36287e-05

> <i_epik_Tot_Q>
0

> <i_epik_Tot_abs_Q>
0

> <s_lp_Force_Field>
OPLS3e

> <r_lp_Energy>
32.1604

> <b_lp_Chiralities_Consistent>
1

> <s_lp_Variant>
/home/yujie/leadopt/data/result/selection/sEH/lig_6a.sdf:1-1

> <s_i_glide_gridfile>
glide-grid_sEH

> <i_i_glide_lignum>
4

> <i_i_glide_rotatable_bonds>
7

> <r_i_docking_score>
-11.1979129375251

> <r_i_glide_ligand_efficiency>
-0.361222997984681

> <r_i_glide_ligand_efficiency_sa>
-1.134738935769

> <r_i_glide_ligand_efficiency_ln>
-2.52547254222971

> <r_i_glide_gscore>
-11.1979129375251

> <r_i_glide_lipo>
-3.95667134317795

> <r_i_glide_hbond>
-0.72

> <r_i_glide_metal>
0

> <r_i_glide_rewards>
-3.06383806260555

> <r_i_glide_evdw>
-45.6970558166504

> <r_i_glide_ecoul>
-10.8682994842529

> <r_i_glide_erotb>
0.657694181728873

> <r_i_glide_esite>
-0.2

> <r_i_glide_emodel>
-79.2690369366089

> <r_i_glide_energy>
-56.5653553009033

> <r_i_glide_einternal>
1.61191976070404

> <i_i_glide_confnum>
81

> <i_i_glide_posenum>
120

> <r_i_glide_eff_state_penalty>
0

> <r_lp_tautomer_probability>
1

> <s_m_job_name>
glide-dock_SP_all

> <r_glide_shape_similarity>
0.829641342163086

> <s_m_subgroup_title>
glide-dock_SP_all_pv1

> <s_m_subgroupid>
glide-dock_SP_all_pv1

> <b_m_subgroup_collapsed>
0

$$$$
