/home/yujie/leadopt/data/result/selection/sEH/lig_11n.sdf:1
                    3D
 Schrodinger Suite 2021-2.
 63 67  0  0  1  0            999 V2000
   -1.5767  -15.4106   25.6453 O   0  0  0  0  0  0
   -1.1972  -14.9550   26.7260 C   0  0  0  0  0  0
   -0.0986  -13.9326   26.7369 C   0  0  0  0  0  0
    0.6626  -13.7297   25.5590 C   0  0  0  0  0  0
    1.6102  -12.7009   25.4997 C   0  0  0  0  0  0
    1.8547  -11.9286   26.6473 C   0  0  0  0  0  0
    2.7768  -10.9332   26.8997 N   0  0  0  0  0  0
    3.6685  -10.3315   25.9011 C   0  0  0  0  0  0
    5.0177  -11.0347   25.8380 C   0  0  0  0  0  0
    6.1064  -10.5929   26.6220 C   0  0  0  0  0  0
    7.3049  -11.3203   26.6681 C   0  0  0  0  0  0
    8.2736  -10.9201   27.5161 F   0  0  0  0  0  0
    7.4877  -12.4448   25.8485 C   0  0  0  0  0  0
    6.4325  -12.8574   24.9988 C   0  0  0  0  0  0
    5.1964  -12.1656   25.0045 C   0  0  0  0  0  0
    2.8019  -10.7418   28.2810 C   0  0  0  0  0  0
    3.9864  -10.1328   28.9065 C   0  0  0  0  0  0
    1.6820  -11.2711   28.8635 C   0  0  0  0  0  0
    1.1289  -12.1312   27.8645 C   0  0  0  0  0  0
    0.1144  -13.1070   27.8654 C   0  0  0  0  0  0
   -1.7725  -15.2843   27.8993 N   0  0  0  0  0  0
   -2.9918  -16.0884   28.0158 C   0  0  0  0  0  0
   -2.7412  -17.5924   27.9978 C   0  0  0  0  0  0
   -3.6810  -18.5328   27.4795 C   0  0  0  0  0  0
   -4.9928  -18.0471   26.8297 C   0  0  0  0  0  0
   -5.7303  -19.0832   26.4277 F   0  0  0  0  0  0
   -5.7194  -17.3355   27.6960 F   0  0  0  0  0  0
   -4.7442  -17.2826   25.7591 F   0  0  0  0  0  0
   -3.3660  -19.9255   27.5491 C   0  0  0  0  0  0
   -2.1301  -20.3850   28.0977 C   0  0  0  0  0  0
   -1.6471  -21.6438   28.1087 N   0  5  0  0  0  0
   -2.2729  -23.0362   27.5748 S   0  0  0  0  0  0
   -3.4360  -23.3671   28.9844 C   0  0  0  0  0  0
   -3.9104  -24.8017   29.0200 C   0  0  0  0  0  0
   -2.8865  -24.3177   30.0402 C   0  0  0  0  0  0
   -1.2690  -24.1167   27.5594 O   0  0  0  0  0  0
   -3.1052  -22.8968   26.3634 O   0  0  0  0  0  0
   -1.2560  -19.4249   28.6295 C   0  0  0  0  0  0
   -1.5437  -18.0587   28.5766 C   0  0  0  0  0  0
    0.4975  -14.3344   24.6799 H   0  0  0  0  0  0
    2.1571  -12.5302   24.5891 H   0  0  0  0  0  0
    3.1853  -10.3770   24.9250 H   0  0  0  0  0  0
    3.7953   -9.2720   26.1134 H   0  0  0  0  0  0
    6.0347   -9.7318   27.2542 H   0  0  0  0  0  0
    8.4194  -12.9848   25.8665 H   0  0  0  0  0  0
    6.5624  -13.7156   24.3628 H   0  0  0  0  0  0
    4.3940  -12.5140   24.3725 H   0  0  0  0  0  0
    3.8657   -9.7335   29.9015 H   0  0  0  0  0  0
    4.7961  -10.8585   28.9720 H   0  0  0  0  0  0
    4.2903   -9.3327   28.2563 H   0  0  0  0  0  0
    1.3948  -11.2487   29.9042 H   0  0  0  0  0  0
   -0.4733  -13.2342   28.7625 H   0  0  0  0  0  0
   -1.3855  -14.9235   28.7779 H   0  0  0  0  0  0
   -3.6981  -15.7761   27.2461 H   0  0  0  0  0  0
   -3.4622  -15.8276   28.9680 H   0  0  0  0  0  0
   -4.0499  -20.6451   27.1349 H   0  0  0  0  0  0
   -4.0971  -22.5368   29.2337 H   0  0  0  0  0  0
   -3.5725  -25.4249   28.1996 H   0  0  0  0  0  0
   -4.9198  -24.9852   29.3748 H   0  0  0  0  0  0
   -3.2314  -24.1771   31.0625 H   0  0  0  0  0  0
   -1.8638  -24.6888   29.9420 H   0  0  0  0  0  0
   -0.3204  -19.7328   29.0813 H   0  0  0  0  0  0
   -0.8287  -17.3681   28.9999 H   0  0  0  0  0  0
  1  2  2  0  0  0
  2  3  1  0  0  0
  2 21  1  0  0  0
  3 20  1  0  0  0
  3  4  2  0  0  0
  4  5  1  0  0  0
  4 40  1  0  0  0
  5  6  2  0  0  0
  5 41  1  0  0  0
  6  7  1  0  0  0
  6 19  1  0  0  0
  7  8  1  0  0  0
  7 16  1  0  0  0
  8  9  1  0  0  0
  8 42  1  0  0  0
  8 43  1  0  0  0
  9 15  1  0  0  0
  9 10  2  0  0  0
 10 11  1  0  0  0
 10 44  1  0  0  0
 11 12  1  0  0  0
 11 13  2  0  0  0
 13 14  1  0  0  0
 13 45  1  0  0  0
 14 15  2  0  0  0
 14 46  1  0  0  0
 15 47  1  0  0  0
 16 17  1  0  0  0
 16 18  2  0  0  0
 17 48  1  0  0  0
 17 49  1  0  0  0
 17 50  1  0  0  0
 18 19  1  0  0  0
 18 51  1  0  0  0
 19 20  2  0  0  0
 20 52  1  0  0  0
 21 22  1  0  0  0
 21 53  1  0  0  0
 22 23  1  0  0  0
 22 54  1  0  0  0
 22 55  1  0  0  0
 23 39  1  0  0  0
 23 24  2  0  0  0
 24 25  1  0  0  0
 24 29  1  0  0  0
 25 26  1  0  0  0
 25 27  1  0  0  0
 25 28  1  0  0  0
 29 30  2  0  0  0
 29 56  1  0  0  0
 30 31  1  0  0  0
 30 38  1  0  0  0
 31 32  1  0  0  0
 32 33  1  0  0  0
 32 36  2  0  0  0
 32 37  2  0  0  0
 33 35  1  0  0  0
 33 34  1  0  0  0
 33 57  1  0  0  0
 34 35  1  0  0  0
 34 58  1  0  0  0
 34 59  1  0  0  0
 35 60  1  0  0  0
 35 61  1  0  0  0
 38 39  2  0  0  0
 38 62  1  0  0  0
 39 63  1  0  0  0
M  CHG  1  31  -1
M  END
> <s_m_entry_id>
88

> <s_m_entry_name>
sEH_lig_11n.1

> <s_m_Source_Path>
C:\Users\yujiethinkpad\Desktop\selection\selection\sEH_pose

> <s_m_Source_File>
sEH_lig_11n.sdf

> <i_m_Source_File_Index>
1

> <i_lp_mmshare_version>
51139

> <i_f3d_flags>
0

> <s_epik_input>
W0NIMl0xW0NIMl1bQ0hdMVMoPU8pKD1PKVtOSF1jKFtjSF1bY0hdMilbY0hdYyhDKEYpKEYpRiljMltDSDJdW05IXUMoPU8pYyhbY0hdW2NIXTMpW2NIXWMoYzM0KVtjSF1jKFtDSDNdKW40W0NIMl1jNVtjSF1jKEYpW2NIXVtjSF1bY0hdNQ==

> <s_epik_cmdline>
J2VwaWtfcHl0aG9uJywgJy1waHQnLCAnMi4wJywgJy1waCcsICc3LjAnLCAnLXRuJywgJzgnLCAnLW1hJywgJzIwMCcsICctaW1hZScsICc8aW5maWxlLm1hZT4nLCAnLW9tYWUnLCAnPG91dGZpbGUubWFlPic=

> <r_epik_Ionization_Penalty>
  1.2618

> <r_epik_Ionization_Penalty_Charging>
  1.2618

> <r_epik_Ionization_Penalty_Neutral>
  0.0000

> <r_epik_State_Penalty>
  1.3325

> <r_epik_Charging_Adjusted_Penalty>
2.59425

> <i_epik_Tot_Q>
-1

> <i_epik_Tot_abs_Q>
1

> <s_lp_Force_Field>
OPLS3e

> <r_lp_Energy>
52.8836

> <b_lp_Chiralities_Consistent>
1

> <s_lp_Variant>
/home/yujie/leadopt/data/result/selection/sEH/lig_11n.sdf:1-2

> <s_i_glide_gridfile>
glide-grid_sEH

> <i_i_glide_lignum>
1

> <i_i_glide_rotatable_bonds>
10

> <r_i_docking_score>
-11.4084105187185

> <r_i_glide_ligand_efficiency>
-0.292523346633808

> <r_i_glide_ligand_efficiency_sa>
-0.99200851924194

> <r_i_glide_ligand_efficiency_ln>
-2.44628706220416

> <r_i_glide_gscore>
-12.7409105187185

> <r_i_glide_lipo>
-5.34812489333176

> <r_i_glide_hbond>
-0.72

> <r_i_glide_metal>
0

> <r_i_glide_rewards>
-2.65382702574065

> <r_i_glide_evdw>
-49.7967529296875

> <r_i_glide_ecoul>
-12.3368425369263

> <r_i_glide_erotb>
0.521405427377232

> <r_i_glide_esite>
-0.2

> <r_i_glide_emodel>
-98.6226487127097

> <r_i_glide_energy>
-62.1335954666138

> <r_i_glide_einternal>
2.3212194442749

> <i_i_glide_confnum>
226

> <i_i_glide_posenum>
82

> <r_i_glide_eff_state_penalty>
1.3325

> <s_m_job_name>
glide-dock_SP_all

> <r_glide_shape_similarity>
0.844514727592468

> <s_m_subgroup_title>
glide-dock_SP_all_pv1

> <s_m_subgroupid>
glide-dock_SP_all_pv1

> <b_m_subgroup_collapsed>
0

$$$$
