/home/yujie/leadopt/data/result/selection/sEH/lig_11f.sdf:1
                    3D
 Schrodinger Suite 2021-2.
 58 62  0  0  1  0            999 V2000
   -1.5299  -15.3799   25.6632 O   0  0  0  0  0  0
   -1.1509  -14.9350   26.7401 C   0  0  0  0  0  0
   -0.0497  -13.9241   26.7607 C   0  0  0  0  0  0
    0.7667  -13.7377   25.6270 C   0  0  0  0  0  0
    1.7346  -12.7246   25.5977 C   0  0  0  0  0  0
    1.8953  -11.9020   26.7180 C   0  0  0  0  0  0
    2.7550  -10.8515   26.9809 N   0  0  0  0  0  0
    3.7725  -10.3188   26.0984 C   0  0  0  0  0  0
    4.9788  -11.2339   25.9817 C   0  0  0  0  0  0
    6.3769  -10.6814   25.8527 C   0  0  0  0  0  0
    5.9618  -11.4028   27.1135 C   0  0  0  0  0  0
    2.4967  -10.3744   28.2505 C   0  0  0  0  0  0
    1.5098  -11.1089   28.8388 C   0  0  0  0  0  0
    1.1020  -12.0756   27.8802 C   0  0  0  0  0  0
    0.1257  -13.0852   27.8718 C   0  0  0  0  0  0
   -1.7275  -15.2830   27.8999 N   0  0  0  0  0  0
   -2.9547  -16.0752   27.9772 C   0  0  0  0  0  0
   -2.7349  -17.5794   27.9408 C   0  0  0  0  0  0
   -3.7100  -18.4949   27.4741 C   0  0  0  0  0  0
   -5.0012  -17.9999   26.8378 C   0  0  0  0  0  0
   -5.7306  -19.0208   26.4223 F   0  0  0  0  0  0
   -5.7140  -17.3006   27.7107 F   0  0  0  0  0  0
   -4.7562  -17.2392   25.7778 F   0  0  0  0  0  0
   -3.4643  -19.8876   27.6027 C   0  0  0  0  0  0
   -2.2558  -20.3506   28.1684 C   0  0  0  0  0  0
   -1.8758  -21.6819   28.3220 N   0  0  0  0  0  0
   -2.7470  -23.1339   28.1651 S   0  0  0  0  0  0
   -2.5066  -23.5148   26.3796 C   0  0  0  0  0  0
   -1.2162  -24.2433   26.1036 C   0  0  0  0  0  0
   -2.5296  -24.9887   26.0785 C   0  0  0  0  0  0
   -2.0161  -24.0962   29.0077 O   0  0  0  0  0  0
   -4.1533  -22.7953   28.4380 O   0  0  0  0  0  0
   -1.3045  -19.4301   28.5945 C   0  0  0  0  0  0
   -1.5352  -18.0645   28.4788 C   0  0  0  0  0  0
    0.6420  -14.3566   24.7508 H   0  0  0  0  0  0
    2.3464  -12.5748   24.7216 H   0  0  0  0  0  0
    4.0877   -9.3443   26.4687 H   0  0  0  0  0  0
    3.3406  -10.1647   25.1098 H   0  0  0  0  0  0
    4.7771  -12.1419   25.4153 H   0  0  0  0  0  0
    6.5034   -9.6011   25.9108 H   0  0  0  0  0  0
    7.0609  -11.1947   25.1807 H   0  0  0  0  0  0
    6.3671  -12.3991   27.2838 H   0  0  0  0  0  0
    5.8049  -10.8020   28.0092 H   0  0  0  0  0  0
    3.0623   -9.5470   28.6503 H   0  0  0  0  0  0
    1.1019  -10.9815   29.8304 H   0  0  0  0  0  0
   -0.5041  -13.1867   28.7393 H   0  0  0  0  0  0
   -1.3535  -14.9319   28.7799 H   0  0  0  0  0  0
   -3.4303  -15.8348   28.9295 H   0  0  0  0  0  0
   -3.6509  -15.7389   27.2120 H   0  0  0  0  0  0
   -4.1942  -20.5996   27.2498 H   0  0  0  0  0  0
   -0.9409  -21.8191   28.6755 H   0  0  0  0  0  0
   -2.9130  -22.7772   25.6870 H   0  0  0  0  0  0
   -0.7346  -24.0538   25.1445 H   0  0  0  0  0  0
   -0.5371  -24.4471   26.9330 H   0  0  0  0  0  0
   -2.7275  -25.6769   26.9017 H   0  0  0  0  0  0
   -2.9160  -25.3005   25.1095 H   0  0  0  0  0  0
   -0.3753  -19.7626   29.0420 H   0  0  0  0  0  0
   -0.7791  -17.3956   28.8642 H   0  0  0  0  0  0
  1  2  2  0  0  0
  2  3  1  0  0  0
  2 16  1  0  0  0
  3 15  1  0  0  0
  3  4  2  0  0  0
  4  5  1  0  0  0
  4 35  1  0  0  0
  5  6  2  0  0  0
  5 36  1  0  0  0
  6  7  1  0  0  0
  6 14  1  0  0  0
  7  8  1  0  0  0
  7 12  1  0  0  0
  8  9  1  0  0  0
  8 37  1  0  0  0
  8 38  1  0  0  0
  9 11  1  0  0  0
  9 10  1  0  0  0
  9 39  1  0  0  0
 10 11  1  0  0  0
 10 40  1  0  0  0
 10 41  1  0  0  0
 11 42  1  0  0  0
 11 43  1  0  0  0
 12 13  2  0  0  0
 12 44  1  0  0  0
 13 14  1  0  0  0
 13 45  1  0  0  0
 14 15  2  0  0  0
 15 46  1  0  0  0
 16 17  1  0  0  0
 16 47  1  0  0  0
 17 18  1  0  0  0
 17 48  1  0  0  0
 17 49  1  0  0  0
 18 34  1  0  0  0
 18 19  2  0  0  0
 19 20  1  0  0  0
 19 24  1  0  0  0
 20 21  1  0  0  0
 20 22  1  0  0  0
 20 23  1  0  0  0
 24 25  2  0  0  0
 24 50  1  0  0  0
 25 26  1  0  0  0
 25 33  1  0  0  0
 26 27  1  0  0  0
 26 51  1  0  0  0
 27 28  1  0  0  0
 27 31  2  0  0  0
 27 32  2  0  0  0
 28 30  1  0  0  0
 28 29  1  0  0  0
 28 52  1  0  0  0
 29 30  1  0  0  0
 29 53  1  0  0  0
 29 54  1  0  0  0
 30 55  1  0  0  0
 30 56  1  0  0  0
 33 34  2  0  0  0
 33 57  1  0  0  0
 34 58  1  0  0  0
M  END
> <s_m_entry_id>
73

> <s_m_entry_name>
sEH_lig_11f.1

> <s_m_Source_Path>
C:\Users\yujiethinkpad\Desktop\selection\selection\sEH_pose

> <s_m_Source_File>
sEH_lig_11f.sdf

> <i_m_Source_File_Index>
1

> <i_lp_mmshare_version>
51139

> <i_f3d_flags>
0

> <s_epik_input>
W0NIMl0xW0NIMl1bQ0hdMVtDSDJdbjJbY0hdW2NIXWMoYzIzKVtjSF1jKFtjSF1bY0hdMylDKD1PKVtOSF1bQ0gyXWM0YyhDKEYpKEYpRilbY0hdYyhbY0hdW2NIXTQpW05IXVMoPU8pKD1PKVtDSF01W0NIMl1bQ0gyXTU=

> <s_epik_cmdline>
J2VwaWtfcHl0aG9uJywgJy1waHQnLCAnMi4wJywgJy1waCcsICc3LjAnLCAnLXRuJywgJzgnLCAnLW1hJywgJzIwMCcsICctaW1hZScsICc8aW5maWxlLm1hZT4nLCAnLW9tYWUnLCAnPG91dGZpbGUubWFlPic=

> <r_epik_Ionization_Penalty>
  0.0750

> <r_epik_Ionization_Penalty_Charging>
  0.0000

> <r_epik_Ionization_Penalty_Neutral>
  0.0750

> <r_epik_State_Penalty>
  0.0661

> <r_epik_Charging_Adjusted_Penalty>
0.0660634

> <i_epik_Tot_Q>
0

> <i_epik_Tot_abs_Q>
0

> <s_lp_Force_Field>
OPLS3e

> <r_lp_Energy>
47.0251

> <b_lp_Chiralities_Consistent>
1

> <s_lp_Variant>
/home/yujie/leadopt/data/result/selection/sEH/lig_11f.sdf:1-1

> <s_i_glide_gridfile>
glide-grid_sEH

> <i_i_glide_lignum>
44

> <i_i_glide_rotatable_bonds>
10

> <r_i_docking_score>
-11.9545316461344

> <r_i_glide_ligand_efficiency>
-0.351603871945128

> <r_i_glide_ligand_efficiency_sa>
-1.13906005158938

> <r_i_glide_ligand_efficiency_ln>
-2.64109135388594

> <r_i_glide_gscore>
-12.0206316461344

> <r_i_glide_lipo>
-4.80111438538685

> <r_i_glide_hbond>
-0.72

> <r_i_glide_metal>
0

> <r_i_glide_rewards>
-2.54341635390778

> <r_i_glide_evdw>
-53.7389793395996

> <r_i_glide_ecoul>
-12.1835460662842

> <r_i_glide_erotb>
0.758379970082885

> <r_i_glide_esite>
-0.2

> <r_i_glide_emodel>
-104.938767985508

> <r_i_glide_energy>
-65.9225254058838

> <r_i_glide_einternal>
1.46462905406952

> <i_i_glide_confnum>
137

> <i_i_glide_posenum>
377

> <r_i_glide_eff_state_penalty>
0.0661

> <s_m_job_name>
glide-dock_SP_all

> <r_glide_shape_similarity>
0.858525574207306

> <s_m_subgroup_title>
glide-dock_SP_all_pv1

> <s_m_subgroupid>
glide-dock_SP_all_pv1

> <b_m_subgroup_collapsed>
0

$$$$
