/home/yujie/leadopt/data/result/selection/sEH/lig_6h.sdf:1
                    3D
 Schrodinger Suite 2021-2.
 49 52  0  0  1  0            999 V2000
   -1.5709  -15.4317   25.6463 O   0  0  0  0  0  0
   -1.1719  -15.0072   26.7226 C   0  0  0  0  0  0
   -0.0767  -14.0067   26.7400 C   0  0  0  0  0  0
    0.7247  -13.8307   25.5797 C   0  0  0  0  0  0
    1.6924  -12.8157   25.5021 C   0  0  0  0  0  0
    1.8222  -12.0042   26.6224 C   0  0  0  0  0  0
    2.6495  -10.9271   26.8688 N   0  0  0  0  0  0
    3.6251  -10.3517   25.9525 C   0  0  0  0  0  0
    5.0673  -10.7899   26.1730 C   0  0  0  0  0  0
    5.4140  -11.7559   27.1406 C   0  0  0  0  0  0
    6.7378  -12.1874   27.2768 C   0  0  0  0  0  0
    7.7313  -11.6672   26.4403 C   0  0  0  0  0  0
    7.4084  -10.6918   25.4892 C   0  0  0  0  0  0
    6.0847  -10.2471   25.3635 C   0  0  0  0  0  0
    5.7235   -9.0502   24.1799 Cl  0  0  0  0  0  0
    2.4393  -10.5438   28.1264 C   0  0  0  0  0  0
    1.4634  -11.2582   28.6720 N   0  0  0  0  0  0
    3.1015   -9.7329   28.7008 O   0  0  0  0  0  0
    1.0704  -12.1948   27.7546 C   0  0  0  0  0  0
    0.0967  -13.1736   27.8594 C   0  0  0  0  0  0
   -1.7182  -15.3673   27.8884 N   0  0  0  0  0  0
   -2.9445  -16.1431   27.9775 C   0  0  0  0  0  0
   -2.7826  -17.6594   27.8875 C   0  0  0  0  0  0
   -3.8398  -18.4898   27.4412 C   0  0  0  0  0  0
   -5.0989  -17.9128   26.8126 C   0  0  0  0  0  0
   -4.8077  -17.1766   25.7442 F   0  0  0  0  0  0
   -5.9313  -18.8653   26.4141 F   0  0  0  0  0  0
   -5.7334  -17.1611   27.6981 F   0  0  0  0  0  0
   -3.7340  -19.8876   27.5998 C   0  0  0  0  0  0
   -2.5783  -20.4702   28.1378 C   0  0  0  0  0  0
   -1.4976  -19.6516   28.4847 C   0  0  0  0  0  0
   -1.5993  -18.2582   28.3577 C   0  0  0  0  0  0
    0.5866  -14.4635   24.7157 H   0  0  0  0  0  0
    2.2899  -12.6729   24.6136 H   0  0  0  0  0  0
    3.3411  -10.5854   24.9263 H   0  0  0  0  0  0
    3.5732   -9.2649   26.0368 H   0  0  0  0  0  0
    4.6710  -12.2012   27.7834 H   0  0  0  0  0  0
    6.9894  -12.9344   28.0158 H   0  0  0  0  0  0
    8.7491  -12.0093   26.5360 H   0  0  0  0  0  0
    8.1795  -10.2821   24.8533 H   0  0  0  0  0  0
    1.1174  -11.1973   29.6142 H   0  0  0  0  0  0
   -0.5125  -13.2509   28.7463 H   0  0  0  0  0  0
   -1.3536  -14.9789   28.7593 H   0  0  0  0  0  0
   -3.6507  -15.7630   27.2440 H   0  0  0  0  0  0
   -3.3927  -15.9205   28.9465 H   0  0  0  0  0  0
   -4.5446  -20.5380   27.3026 H   0  0  0  0  0  0
   -2.5080  -21.5430   28.2466 H   0  0  0  0  0  0
   -0.5902  -20.0886   28.8801 H   0  0  0  0  0  0
   -0.7738  -17.6498   28.6967 H   0  0  0  0  0  0
  1  2  2  0  0  0
  2  3  1  0  0  0
  2 21  1  0  0  0
  3 20  1  0  0  0
  3  4  2  0  0  0
  4  5  1  0  0  0
  4 33  1  0  0  0
  5  6  2  0  0  0
  5 34  1  0  0  0
  6  7  1  0  0  0
  6 19  1  0  0  0
  7  8  1  0  0  0
  7 16  1  0  0  0
  8  9  1  0  0  0
  8 35  1  0  0  0
  8 36  1  0  0  0
  9 14  1  0  0  0
  9 10  2  0  0  0
 10 11  1  0  0  0
 10 37  1  0  0  0
 11 12  2  0  0  0
 11 38  1  0  0  0
 12 13  1  0  0  0
 12 39  1  0  0  0
 13 14  2  0  0  0
 13 40  1  0  0  0
 14 15  1  0  0  0
 16 17  1  0  0  0
 16 18  2  0  0  0
 17 19  1  0  0  0
 17 41  1  0  0  0
 19 20  2  0  0  0
 20 42  1  0  0  0
 21 22  1  0  0  0
 21 43  1  0  0  0
 22 23  1  0  0  0
 22 44  1  0  0  0
 22 45  1  0  0  0
 23 32  1  0  0  0
 23 24  2  0  0  0
 24 25  1  0  0  0
 24 29  1  0  0  0
 25 26  1  0  0  0
 25 27  1  0  0  0
 25 28  1  0  0  0
 29 30  2  0  0  0
 29 46  1  0  0  0
 30 31  1  0  0  0
 30 47  1  0  0  0
 31 32  2  0  0  0
 31 48  1  0  0  0
 32 49  1  0  0  0
M  END
> <s_m_entry_id>
94

> <s_m_entry_name>
sEH_lig_6h.1

> <s_m_Source_Path>
C:\Users\yujiethinkpad\Desktop\selection\selection\sEH_pose

> <s_m_Source_File>
sEH_lig_6h.sdf

> <i_m_Source_File_Index>
1

> <i_lp_mmshare_version>
51139

> <i_f3d_flags>
0

> <s_epik_input>
W2NIXTFbY0hdW2NIXVtjSF1jKEMoRikoRilGKWMxW0NIMl1bTkhdQyg9TyljKFtjSF1bY0hdMilbY0hdYyhjMjMpW25IXWMoPU8pbjNbQ0gyXWM0W2NIXVtjSF1bY0hdW2NIXWM0Q2w=

> <s_epik_cmdline>
J2VwaWtfcHl0aG9uJywgJy1waHQnLCAnMi4wJywgJy1waCcsICc3LjAnLCAnLXRuJywgJzgnLCAnLW1hJywgJzIwMCcsICctaW1hZScsICc8aW5maWxlLm1hZT4nLCAnLW9tYWUnLCAnPG91dGZpbGUubWFlPic=

> <r_epik_Ionization_Penalty>
  0.0000

> <r_epik_Ionization_Penalty_Charging>
  0.0000

> <r_epik_Ionization_Penalty_Neutral>
  0.0000

> <r_epik_State_Penalty>
  0.0000

> <r_epik_Charging_Adjusted_Penalty>
2.36287e-05

> <i_epik_Tot_Q>
0

> <i_epik_Tot_abs_Q>
0

> <s_lp_Force_Field>
OPLS3e

> <r_lp_Energy>
35.1282

> <b_lp_Chiralities_Consistent>
1

> <s_lp_Variant>
/home/yujie/leadopt/data/result/selection/sEH/lig_6h.sdf:1-1

> <s_i_glide_gridfile>
glide-grid_sEH

> <i_i_glide_lignum>
11

> <i_i_glide_rotatable_bonds>
7

> <r_i_docking_score>
-11.2872599878058

> <r_i_glide_ligand_efficiency>
-0.352726874618932

> <r_i_glide_ligand_efficiency_sa>
-1.11983802236141

> <r_i_glide_ligand_efficiency_ln>
-2.52752519035652

> <r_i_glide_gscore>
-11.2872599878058

> <r_i_glide_lipo>
-4.10288698640949

> <r_i_glide_hbond>
-0.72

> <r_i_glide_metal>
0

> <r_i_glide_rewards>
-2.83063618936076

> <r_i_glide_evdw>
-47.4105339050293

> <r_i_glide_ecoul>
-10.8947076797485

> <r_i_glide_erotb>
0.570996035178175

> <r_i_glide_esite>
-0.2

> <r_i_glide_emodel>
-82.7486839990988

> <r_i_glide_energy>
-58.3052415847778

> <r_i_glide_einternal>
1.57659232616425

> <i_i_glide_confnum>
6

> <i_i_glide_posenum>
74

> <r_i_glide_eff_state_penalty>
0

> <r_lp_tautomer_probability>
1

> <s_m_job_name>
glide-dock_SP_all

> <r_glide_shape_similarity>
0.835908949375153

> <s_m_subgroup_title>
glide-dock_SP_all_pv1

> <s_m_subgroupid>
glide-dock_SP_all_pv1

> <b_m_subgroup_collapsed>
0

$$$$
