/home/yujie/leadopt/data/result/selection/sEH/lig_7e.sdf:1
                    3D
 Schrodinger Suite 2021-2.
 48 51  0  0  1  0            999 V2000
   -1.5022  -15.4140   25.6568 O   0  0  0  0  0  0
   -1.1325  -14.9702   26.7373 C   0  0  0  0  0  0
   -0.0464  -13.9384   26.7663 C   0  0  0  0  0  0
    0.7678  -13.7526   25.6295 C   0  0  0  0  0  0
    1.7268  -12.7337   25.5878 C   0  0  0  0  0  0
    1.8725  -11.9033   26.7003 C   0  0  0  0  0  0
    2.6804  -10.8191   26.9647 N   0  0  0  0  0  0
    3.6551  -10.2061   26.0773 C   0  0  0  0  0  0
    5.0703  -10.7521   26.2070 C   0  0  0  0  0  0
    5.4084  -11.7255   27.1650 C   0  0  0  0  0  0
    6.7311  -12.1602   27.2991 C   0  0  0  0  0  0
    7.0485  -13.0258   28.2880 F   0  0  0  0  0  0
    7.7241  -11.6657   26.4424 C   0  0  0  0  0  0
    7.3987  -10.7001   25.4792 C   0  0  0  0  0  0
    6.0765  -10.2419   25.3672 C   0  0  0  0  0  0
    2.4951  -10.3239   28.2151 N   0  0  0  0  0  0
    1.5624  -11.0655   28.7629 C   0  0  0  0  0  0
    1.0977  -12.0734   27.8704 C   0  0  0  0  0  0
    0.1250  -13.0911   27.8769 C   0  0  0  0  0  0
   -1.6988  -15.3463   27.8925 N   0  0  0  0  0  0
   -2.9308  -16.1341   27.9671 C   0  0  0  0  0  0
   -2.7795  -17.6555   27.8842 C   0  0  0  0  0  0
   -3.8385  -18.4865   27.4393 C   0  0  0  0  0  0
   -5.0989  -17.9115   26.8107 C   0  0  0  0  0  0
   -5.7303  -17.1594   27.6985 F   0  0  0  0  0  0
   -4.8068  -17.1769   25.7425 F   0  0  0  0  0  0
   -5.9286  -18.8649   26.4102 F   0  0  0  0  0  0
   -3.7340  -19.8845   27.6021 C   0  0  0  0  0  0
   -2.5803  -20.4674   28.1418 C   0  0  0  0  0  0
   -1.4983  -19.6501   28.4849 C   0  0  0  0  0  0
   -1.5974  -18.2570   28.3526 C   0  0  0  0  0  0
    0.6526  -14.3828   24.7601 H   0  0  0  0  0  0
    2.3316  -12.5858   24.7055 H   0  0  0  0  0  0
    3.3151  -10.3322   25.0487 H   0  0  0  0  0  0
    3.6678   -9.1325   26.2667 H   0  0  0  0  0  0
    4.6700  -12.1330   27.8366 H   0  0  0  0  0  0
    8.7410  -12.0111   26.5427 H   0  0  0  0  0  0
    8.1645  -10.3081   24.8251 H   0  0  0  0  0  0
    5.8329   -9.4942   24.6257 H   0  0  0  0  0  0
    1.2324  -10.8539   29.7691 H   0  0  0  0  0  0
   -0.5052  -13.1892   28.7469 H   0  0  0  0  0  0
   -1.3516  -14.9589   28.7696 H   0  0  0  0  0  0
   -3.6275  -15.7570   27.2207 H   0  0  0  0  0  0
   -3.3941  -15.9074   28.9287 H   0  0  0  0  0  0
   -4.5435  -20.5337   27.3042 H   0  0  0  0  0  0
   -2.5117  -21.5391   28.2585 H   0  0  0  0  0  0
   -0.5920  -20.0879   28.8807 H   0  0  0  0  0  0
   -0.7687  -17.6483   28.6853 H   0  0  0  0  0  0
  1  2  2  0  0  0
  2  3  1  0  0  0
  2 20  1  0  0  0
  3 19  1  0  0  0
  3  4  2  0  0  0
  4  5  1  0  0  0
  4 32  1  0  0  0
  5  6  2  0  0  0
  5 33  1  0  0  0
  6  7  1  0  0  0
  6 18  1  0  0  0
  7  8  1  0  0  0
  7 16  1  0  0  0
  8  9  1  0  0  0
  8 34  1  0  0  0
  8 35  1  0  0  0
  9 15  1  0  0  0
  9 10  2  0  0  0
 10 11  1  0  0  0
 10 36  1  0  0  0
 11 12  1  0  0  0
 11 13  2  0  0  0
 13 14  1  0  0  0
 13 37  1  0  0  0
 14 15  2  0  0  0
 14 38  1  0  0  0
 15 39  1  0  0  0
 16 17  2  0  0  0
 17 18  1  0  0  0
 17 40  1  0  0  0
 18 19  2  0  0  0
 19 41  1  0  0  0
 20 21  1  0  0  0
 20 42  1  0  0  0
 21 22  1  0  0  0
 21 43  1  0  0  0
 21 44  1  0  0  0
 22 31  1  0  0  0
 22 23  2  0  0  0
 23 24  1  0  0  0
 23 28  1  0  0  0
 24 25  1  0  0  0
 24 26  1  0  0  0
 24 27  1  0  0  0
 28 29  2  0  0  0
 28 45  1  0  0  0
 29 30  1  0  0  0
 29 46  1  0  0  0
 30 31  2  0  0  0
 30 47  1  0  0  0
 31 48  1  0  0  0
M  END
> <s_m_entry_id>
81

> <s_m_entry_name>
sEH_lig_7e.1

> <s_m_Source_Path>
C:\Users\yujiethinkpad\Desktop\selection\selection\sEH_pose

> <s_m_Source_File>
sEH_lig_7e.sdf

> <i_m_Source_File_Index>
1

> <i_lp_mmshare_version>
51139

> <i_f3d_flags>
0

> <s_epik_input>
W2NIXTFbY0hdW2NIXVtjSF1jKEMoRikoRilGKWMxW0NIMl1bTkhdQyg9TyljKFtjSF1bY0hdMilbY0hdYyhjMjMpW2NIXW5uM1tDSDJdYzRbY0hdYyhGKVtjSF1bY0hdW2NIXTQ=

> <s_epik_cmdline>
J2VwaWtfcHl0aG9uJywgJy1waHQnLCAnMi4wJywgJy1waCcsICc3LjAnLCAnLXRuJywgJzgnLCAnLW1hJywgJzIwMCcsICctaW1hZScsICc8aW5maWxlLm1hZT4nLCAnLW9tYWUnLCAnPG91dGZpbGUubWFlPic=

> <r_epik_Ionization_Penalty>
  0.0000

> <r_epik_Ionization_Penalty_Charging>
  0.0000

> <r_epik_Ionization_Penalty_Neutral>
  0.0000

> <r_epik_State_Penalty>
  0.0000

> <r_epik_Charging_Adjusted_Penalty>
0

> <i_epik_Tot_Q>
0

> <i_epik_Tot_abs_Q>
0

> <s_lp_Force_Field>
OPLS3e

> <r_lp_Energy>
37.1776

> <b_lp_Chiralities_Consistent>
1

> <s_lp_Variant>
/home/yujie/leadopt/data/result/selection/sEH/lig_7e.sdf:1-1

> <s_i_glide_gridfile>
glide-grid_sEH

> <i_i_glide_lignum>
22

> <i_i_glide_rotatable_bonds>
7

> <r_i_docking_score>
-11.5451901565385

> <r_i_glide_ligand_efficiency>
-0.372425488920598

> <r_i_glide_ligand_efficiency_sa>
-1.16993022401339

> <r_i_glide_ligand_efficiency_ln>
-2.60379419788585

> <r_i_glide_gscore>
-11.5451901565385

> <r_i_glide_lipo>
-4.38083837465469

> <r_i_glide_hbond>
-0.72

> <r_i_glide_metal>
0

> <r_i_glide_rewards>
-2.76873131438572

> <r_i_glide_evdw>
-47.6578979492188

> <r_i_glide_ecoul>
-11.6325626373291

> <r_i_glide_erotb>
0.652158825562193

> <r_i_glide_esite>
-0.2

> <r_i_glide_emodel>
-87.1170211226108

> <r_i_glide_energy>
-59.2904605865479

> <r_i_glide_einternal>
1.87393438816071

> <i_i_glide_confnum>
56

> <i_i_glide_posenum>
75

> <r_i_glide_eff_state_penalty>
0

> <r_lp_tautomer_probability>
1

> <s_m_job_name>
glide-dock_SP_all

> <r_glide_shape_similarity>
0.833317756652832

> <s_m_subgroup_title>
glide-dock_SP_all_pv1

> <s_m_subgroupid>
glide-dock_SP_all_pv1

> <b_m_subgroup_collapsed>
0

$$$$
