/home/yujie/leadopt/data/result/selection/sEH/lig_11e.sdf:1
                    3D
 Schrodinger Suite 2021-2.
 59 62  0  0  1  0            999 V2000
   -1.5067  -15.3982   25.6401 O   0  0  0  0  0  0
   -1.1358  -14.9652   26.7242 C   0  0  0  0  0  0
   -0.0504  -13.9343   26.7564 C   0  0  0  0  0  0
    0.7680  -13.7464   25.6253 C   0  0  0  0  0  0
    1.7312  -12.7319   25.5944 C   0  0  0  0  0  0
    1.8875  -11.9062   26.7123 C   0  0  0  0  0  0
    2.7501  -10.8570   26.9691 N   0  0  0  0  0  0
    3.7586  -10.3347   26.0642 C   0  0  0  0  0  0
    5.2143  -10.5859   26.5226 C   0  0  0  0  0  0
    6.1997  -10.2558   25.4025 C   0  0  0  0  0  0
    5.4890  -11.9948   27.0563 C   0  0  0  0  0  0
    2.4895  -10.3706   28.2373 C   0  0  0  0  0  0
    1.5047  -11.1074   28.8312 C   0  0  0  0  0  0
    1.0920  -12.0782   27.8750 C   0  0  0  0  0  0
    0.1144  -13.0894   27.8658 C   0  0  0  0  0  0
   -1.6997  -15.3429   27.8813 N   0  0  0  0  0  0
   -2.9301  -16.1313   27.9622 C   0  0  0  0  0  0
   -2.7783  -17.6493   27.8783 C   0  0  0  0  0  0
   -3.8360  -18.4819   27.4336 C   0  0  0  0  0  0
   -5.0999  -17.9113   26.8083 C   0  0  0  0  0  0
   -5.9356  -18.8623   26.4107 F   0  0  0  0  0  0
   -5.7301  -17.1547   27.6941 F   0  0  0  0  0  0
   -4.8088  -17.1785   25.7383 F   0  0  0  0  0  0
   -3.7305  -19.8769   27.6017 C   0  0  0  0  0  0
   -2.5963  -20.4585   28.1900 C   0  0  0  0  0  0
   -2.5191  -21.7618   28.4584 N   0  5  0  0  0  0
   -2.5612  -22.9390   27.3600 S   0  0  0  0  0  0
   -2.0065  -24.3226   28.4132 C   0  0  0  0  0  0
   -1.2816  -25.3841   27.6380 C   0  0  0  0  0  0
   -0.5071  -24.4234   28.5214 C   0  0  0  0  0  0
   -3.9254  -23.2773   26.9297 O   0  0  0  0  0  0
   -1.5460  -22.7793   26.3095 O   0  0  0  0  0  0
   -1.5142  -19.6323   28.5123 C   0  0  0  0  0  0
   -1.5982  -18.2462   28.3498 C   0  0  0  0  0  0
    0.6561  -14.3739   24.7536 H   0  0  0  0  0  0
    2.3419  -12.5970   24.7154 H   0  0  0  0  0  0
    3.5841   -9.2650   25.9427 H   0  0  0  0  0  0
    3.6036  -10.7724   25.0785 H   0  0  0  0  0  0
    5.4141   -9.8992   27.3462 H   0  0  0  0  0  0
    6.0731  -10.9250   24.5509 H   0  0  0  0  0  0
    7.2314  -10.3438   25.7438 H   0  0  0  0  0  0
    6.0599   -9.2347   25.0466 H   0  0  0  0  0  0
    5.2681  -12.7521   26.3034 H   0  0  0  0  0  0
    6.5328  -12.1098   27.3504 H   0  0  0  0  0  0
    4.8837  -12.2176   27.9351 H   0  0  0  0  0  0
    3.0562   -9.5395   28.6314 H   0  0  0  0  0  0
    1.0937  -10.9764   29.8222 H   0  0  0  0  0  0
   -0.5220  -13.1897   28.7310 H   0  0  0  0  0  0
   -1.3482  -14.9576   28.7572 H   0  0  0  0  0  0
   -3.3924  -15.9023   28.9232 H   0  0  0  0  0  0
   -3.6269  -15.7645   27.2123 H   0  0  0  0  0  0
   -4.5513  -20.5184   27.3143 H   0  0  0  0  0  0
   -2.6671  -24.5592   29.2449 H   0  0  0  0  0  0
   -1.3695  -26.4083   27.9874 H   0  0  0  0  0  0
   -1.1926  -25.2722   26.5586 H   0  0  0  0  0  0
    0.0989  -23.6598   28.0382 H   0  0  0  0  0  0
   -0.0971  -24.8154   29.4508 H   0  0  0  0  0  0
   -0.6140  -20.0536   28.9411 H   0  0  0  0  0  0
   -0.7677  -17.6396   28.6793 H   0  0  0  0  0  0
  1  2  2  0  0  0
  2  3  1  0  0  0
  2 16  1  0  0  0
  3 15  1  0  0  0
  3  4  2  0  0  0
  4  5  1  0  0  0
  4 35  1  0  0  0
  5  6  2  0  0  0
  5 36  1  0  0  0
  6  7  1  0  0  0
  6 14  1  0  0  0
  7  8  1  0  0  0
  7 12  1  0  0  0
  8  9  1  0  0  0
  8 37  1  0  0  0
  8 38  1  0  0  0
  9 10  1  0  0  0
  9 11  1  0  0  0
  9 39  1  0  0  0
 10 40  1  0  0  0
 10 41  1  0  0  0
 10 42  1  0  0  0
 11 43  1  0  0  0
 11 44  1  0  0  0
 11 45  1  0  0  0
 12 13  2  0  0  0
 12 46  1  0  0  0
 13 14  1  0  0  0
 13 47  1  0  0  0
 14 15  2  0  0  0
 15 48  1  0  0  0
 16 17  1  0  0  0
 16 49  1  0  0  0
 17 18  1  0  0  0
 17 50  1  0  0  0
 17 51  1  0  0  0
 18 34  1  0  0  0
 18 19  2  0  0  0
 19 20  1  0  0  0
 19 24  1  0  0  0
 20 21  1  0  0  0
 20 22  1  0  0  0
 20 23  1  0  0  0
 24 25  2  0  0  0
 24 52  1  0  0  0
 25 26  1  0  0  0
 25 33  1  0  0  0
 26 27  1  0  0  0
 27 28  1  0  0  0
 27 31  2  0  0  0
 27 32  2  0  0  0
 28 30  1  0  0  0
 28 29  1  0  0  0
 28 53  1  0  0  0
 29 30  1  0  0  0
 29 54  1  0  0  0
 29 55  1  0  0  0
 30 56  1  0  0  0
 30 57  1  0  0  0
 33 34  2  0  0  0
 33 58  1  0  0  0
 34 59  1  0  0  0
M  CHG  1  26  -1
M  END
> <s_m_entry_id>
101

> <s_m_entry_name>
sEH_lig_11e.1

> <s_m_Source_Path>
C:\Users\yujiethinkpad\Desktop\selection\selection\sEH_pose

> <s_m_Source_File>
sEH_lig_11e.sdf

> <i_m_Source_File_Index>
1

> <i_lp_mmshare_version>
51139

> <i_f3d_flags>
0

> <s_epik_input>
W0NIM11bQ0hdKFtDSDNdKVtDSDJdbjFbY0hdW2NIXWMoYzEyKVtjSF1jKFtjSF1bY0hdMilDKD1PKVtOSF1bQ0gyXWMzYyhDKEYpKEYpRilbY0hdYyhbY0hdW2NIXTMpW05IXVMoPU8pKD1PKVtDSF00W0NIMl1bQ0gyXTQ=

> <s_epik_cmdline>
J2VwaWtfcHl0aG9uJywgJy1waHQnLCAnMi4wJywgJy1waCcsICc3LjAnLCAnLXRuJywgJzgnLCAnLW1hJywgJzIwMCcsICctaW1hZScsICc8aW5maWxlLm1hZT4nLCAnLW9tYWUnLCAnPG91dGZpbGUubWFlPic=

> <r_epik_Ionization_Penalty>
  1.2618

> <r_epik_Ionization_Penalty_Charging>
  1.2618

> <r_epik_Ionization_Penalty_Neutral>
  0.0000

> <r_epik_State_Penalty>
  1.3325

> <r_epik_Charging_Adjusted_Penalty>
2.59425

> <i_epik_Tot_Q>
-1

> <i_epik_Tot_abs_Q>
1

> <s_lp_Force_Field>
OPLS3e

> <r_lp_Energy>
48.8596

> <b_lp_Chiralities_Consistent>
1

> <s_lp_Variant>
/home/yujie/leadopt/data/result/selection/sEH/lig_11e.sdf:1-2

> <s_i_glide_gridfile>
glide-grid_sEH

> <i_i_glide_lignum>
43

> <i_i_glide_rotatable_bonds>
10

> <r_i_docking_score>
-10.8068584705111

> <r_i_glide_ligand_efficiency>
-0.317848778544443

> <r_i_glide_ligand_efficiency_sa>
-1.02970665278384

> <r_i_glide_ligand_efficiency_ln>
-2.38753815824856

> <r_i_glide_gscore>
-12.1393584705111

> <r_i_glide_lipo>
-4.88195720772566

> <r_i_glide_hbond>
-0.72

> <r_i_glide_metal>
0

> <r_i_glide_rewards>
-2.47956812865372

> <r_i_glide_evdw>
-52.5743408203125

> <r_i_glide_ecoul>
-12.6713848114014

> <r_i_glide_erotb>
0.671591628594145

> <r_i_glide_esite>
-0.2

> <r_i_glide_emodel>
-104.159028214408

> <r_i_glide_energy>
-65.2457256317139

> <r_i_glide_einternal>
1.70729696750641

> <i_i_glide_confnum>
222

> <i_i_glide_posenum>
194

> <r_i_glide_eff_state_penalty>
1.3325

> <s_m_job_name>
glide-dock_SP_all

> <r_glide_shape_similarity>
0.840906202793121

> <s_m_subgroup_title>
glide-dock_SP_all_pv1

> <s_m_subgroupid>
glide-dock_SP_all_pv1

> <b_m_subgroup_collapsed>
0

$$$$
