/home/yujie/leadopt/data/result/selection/sEH/lig_11j.sdf:1
                    3D
 Schrodinger Suite 2021-2.
 59 63  0  0  1  0            999 V2000
   -1.5013  -15.4290   25.6586 O   0  0  0  0  0  0
   -1.1441  -14.9576   26.7309 C   0  0  0  0  0  0
   -0.0519  -13.9315   26.7574 C   0  0  0  0  0  0
    0.7618  -13.7407   25.6237 C   0  0  0  0  0  0
    1.7274  -12.7282   25.5922 C   0  0  0  0  0  0
    1.8834  -11.9015   26.7099 C   0  0  0  0  0  0
    2.7401  -10.8472   26.9687 N   0  0  0  0  0  0
    3.7529  -10.3150   26.0780 C   0  0  0  0  0  0
    4.9887  -11.2110   26.0020 C   0  0  0  0  0  0
    6.3445  -10.6477   25.5952 C   0  0  0  0  0  0
    7.0083  -11.4233   26.6179 O   0  0  0  0  0  0
    5.7297  -11.6524   27.2535 C   0  0  0  0  0  0
    2.4880  -10.3701   28.2411 C   0  0  0  0  0  0
    1.5004  -11.1061   28.8323 C   0  0  0  0  0  0
    1.0932  -12.0778   27.8749 C   0  0  0  0  0  0
    0.1191  -13.0906   27.8677 C   0  0  0  0  0  0
   -1.7341  -15.2870   27.8907 N   0  0  0  0  0  0
   -2.9586  -16.0819   27.9669 C   0  0  0  0  0  0
   -2.7322  -17.5882   27.9397 C   0  0  0  0  0  0
   -3.7051  -18.5077   27.4757 C   0  0  0  0  0  0
   -4.9947  -18.0182   26.8338 C   0  0  0  0  0  0
   -5.7316  -19.0368   26.4196 F   0  0  0  0  0  0
   -5.7065  -17.3200   27.7080 F   0  0  0  0  0  0
   -4.7482  -17.2544   25.7738 F   0  0  0  0  0  0
   -3.4543  -19.8988   27.6067 C   0  0  0  0  0  0
   -2.2392  -20.3579   28.1671 C   0  0  0  0  0  0
   -1.8479  -21.6843   28.3182 N   0  0  0  0  0  0
   -2.7213  -23.1400   28.2277 S   0  0  0  0  0  0
   -2.5890  -23.5245   26.4341 C   0  0  0  0  0  0
   -1.2672  -24.1570   26.0758 C   0  0  0  0  0  0
   -2.5221  -24.9956   26.1252 C   0  0  0  0  0  0
   -1.9287  -24.0900   29.0291 O   0  0  0  0  0  0
   -4.1073  -22.8035   28.5868 O   0  0  0  0  0  0
   -1.2920  -19.4308   28.5897 C   0  0  0  0  0  0
   -1.5283  -18.0689   28.4714 C   0  0  0  0  0  0
    0.6381  -14.3612   24.7503 H   0  0  0  0  0  0
    2.3335  -12.5815   24.7120 H   0  0  0  0  0  0
    4.0304   -9.3266   26.4306 H   0  0  0  0  0  0
    3.3128  -10.1805   25.0882 H   0  0  0  0  0  0
    4.7803  -12.0992   25.4037 H   0  0  0  0  0  0
    6.4487   -9.5725   25.7592 H   0  0  0  0  0  0
    6.6490  -10.9271   24.5852 H   0  0  0  0  0  0
    5.5651  -12.6969   27.5217 H   0  0  0  0  0  0
    5.5783  -10.9935   28.1127 H   0  0  0  0  0  0
    3.0501   -9.5424   28.6411 H   0  0  0  0  0  0
    1.0914  -10.9778   29.8248 H   0  0  0  0  0  0
   -0.5154  -13.1882   28.7359 H   0  0  0  0  0  0
   -1.3705  -14.9261   28.7720 H   0  0  0  0  0  0
   -3.4459  -15.8376   28.9120 H   0  0  0  0  0  0
   -3.6477  -15.7546   27.1901 H   0  0  0  0  0  0
   -4.1795  -20.6194   27.2593 H   0  0  0  0  0  0
   -0.9103  -21.8035   28.6666 H   0  0  0  0  0  0
   -3.0678  -22.8042   25.7671 H   0  0  0  0  0  0
   -0.8561  -23.9300   25.0931 H   0  0  0  0  0  0
   -0.5282  -24.3164   26.8628 H   0  0  0  0  0  0
   -2.6235  -25.7034   26.9499 H   0  0  0  0  0  0
   -2.9329  -25.3306   25.1740 H   0  0  0  0  0  0
   -0.3628  -19.7599   29.0305 H   0  0  0  0  0  0
   -0.7782  -17.3950   28.8532 H   0  0  0  0  0  0
  1  2  2  0  0  0
  2  3  1  0  0  0
  2 17  1  0  0  0
  3 16  1  0  0  0
  3  4  2  0  0  0
  4  5  1  0  0  0
  4 36  1  0  0  0
  5  6  2  0  0  0
  5 37  1  0  0  0
  6  7  1  0  0  0
  6 15  1  0  0  0
  7  8  1  0  0  0
  7 13  1  0  0  0
  8  9  1  0  0  0
  8 38  1  0  0  0
  8 39  1  0  0  0
  9 12  1  0  0  0
  9 10  1  0  0  0
  9 40  1  0  0  0
 10 11  1  0  0  0
 10 41  1  0  0  0
 10 42  1  0  0  0
 11 12  1  0  0  0
 12 43  1  0  0  0
 12 44  1  0  0  0
 13 14  2  0  0  0
 13 45  1  0  0  0
 14 15  1  0  0  0
 14 46  1  0  0  0
 15 16  2  0  0  0
 16 47  1  0  0  0
 17 18  1  0  0  0
 17 48  1  0  0  0
 18 19  1  0  0  0
 18 49  1  0  0  0
 18 50  1  0  0  0
 19 35  1  0  0  0
 19 20  2  0  0  0
 20 21  1  0  0  0
 20 25  1  0  0  0
 21 22  1  0  0  0
 21 23  1  0  0  0
 21 24  1  0  0  0
 25 26  2  0  0  0
 25 51  1  0  0  0
 26 27  1  0  0  0
 26 34  1  0  0  0
 27 28  1  0  0  0
 27 52  1  0  0  0
 28 29  1  0  0  0
 28 32  2  0  0  0
 28 33  2  0  0  0
 29 31  1  0  0  0
 29 30  1  0  0  0
 29 53  1  0  0  0
 30 31  1  0  0  0
 30 54  1  0  0  0
 30 55  1  0  0  0
 31 56  1  0  0  0
 31 57  1  0  0  0
 34 35  2  0  0  0
 34 58  1  0  0  0
 35 59  1  0  0  0
M  END
> <s_m_entry_id>
71

> <s_m_entry_name>
sEH_lig_11j.1

> <s_m_Source_Path>
C:\Users\yujiethinkpad\Desktop\selection\selection\sEH_pose

> <s_m_Source_File>
sEH_lig_11j.sdf

> <i_m_Source_File_Index>
1

> <i_lp_mmshare_version>
51139

> <i_f3d_flags>
0

> <s_epik_input>
W0NIMl0xW0NIMl1bQ0hdMVMoPU8pKD1PKVtOSF1jKFtjSF1bY0hdMilbY0hdYyhDKEYpKEYpRiljMltDSDJdW05IXUMoPU8pYyhbY0hdW2NIXTMpW2NIXWMoYzM0KVtjSF1bY0hdbjRbQ0gyXVtDSF01W0NIMl1PW0NIMl01

> <s_epik_cmdline>
J2VwaWtfcHl0aG9uJywgJy1waHQnLCAnMi4wJywgJy1waCcsICc3LjAnLCAnLXRuJywgJzgnLCAnLW1hJywgJzIwMCcsICctaW1hZScsICc8aW5maWxlLm1hZT4nLCAnLW9tYWUnLCAnPG91dGZpbGUubWFlPic=

> <r_epik_Ionization_Penalty>
  0.0750

> <r_epik_Ionization_Penalty_Charging>
  0.0000

> <r_epik_Ionization_Penalty_Neutral>
  0.0750

> <r_epik_State_Penalty>
  0.0661

> <r_epik_Charging_Adjusted_Penalty>
0.0660634

> <i_epik_Tot_Q>
0

> <i_epik_Tot_abs_Q>
0

> <s_lp_Force_Field>
OPLS3e

> <r_lp_Energy>
44.8347

> <b_lp_Chiralities_Consistent>
1

> <s_lp_Variant>
/home/yujie/leadopt/data/result/selection/sEH/lig_11j.sdf:1-1

> <s_i_glide_gridfile>
glide-grid_sEH

> <i_i_glide_lignum>
48

> <i_i_glide_rotatable_bonds>
10

> <r_i_docking_score>
-12.0059374442314

> <r_i_glide_ligand_efficiency>
-0.343026784120897

> <r_i_glide_ligand_efficiency_sa>
-1.12206335570042

> <r_i_glide_ligand_efficiency_ln>
-2.63556972643402

> <r_i_glide_gscore>
-12.0720374442314

> <r_i_glide_lipo>
-4.8085112759018

> <r_i_glide_hbond>
-0.72

> <r_i_glide_metal>
0

> <r_i_glide_rewards>
-2.48558780364758

> <r_i_glide_evdw>
-54.5286712646484

> <r_i_glide_ecoul>
-12.3108987808228

> <r_i_glide_erotb>
0.715130015673835

> <r_i_glide_esite>
-0.2

> <r_i_glide_emodel>
-109.644160606526

> <r_i_glide_energy>
-66.8395700454712

> <r_i_glide_einternal>
0.517661988735199

> <i_i_glide_confnum>
287

> <i_i_glide_posenum>
162

> <r_i_glide_eff_state_penalty>
0.0661

> <s_m_job_name>
glide-dock_SP_all

> <r_glide_shape_similarity>
0.880893051624298

> <s_m_subgroup_title>
glide-dock_SP_all_pv1

> <s_m_subgroupid>
glide-dock_SP_all_pv1

> <b_m_subgroup_collapsed>
0

$$$$
