/home/yujie/leadopt/data/result/selection/sEH/lig_11o.sdf:1
                    3D
 Schrodinger Suite 2021-2.
 62 65  0  0  1  0            999 V2000
   -1.7284  -15.3326   25.9011 O   0  0  0  0  0  0
   -1.4777  -15.5617   27.0831 C   0  0  0  0  0  0
   -1.8959  -16.8773   27.6503 C   0  0  0  0  0  0
   -0.9580  -17.6953   28.3038 C   0  0  0  0  0  0
   -1.2404  -19.0511   28.5285 C   0  0  0  0  0  0
   -2.4583  -19.5926   28.1043 C   0  0  0  0  0  0
   -3.4715  -18.7473   27.5726 C   0  0  0  0  0  0
   -4.6264  -19.5357   27.3604 C   0  0  0  0  0  0
   -4.2961  -20.8211   27.6885 C   0  0  0  0  0  0
   -5.2293  -21.9797   27.6898 C   0  0  0  0  0  0
   -2.9515  -20.8922   28.0554 N   0  0  0  0  0  0
   -2.0971  -22.3685   28.4252 S   0  0  0  0  0  0
   -2.2266  -23.3729   26.8610 C   0  0  0  0  0  0
   -2.7662  -24.7721   27.1707 C   0  0  0  0  0  0
   -0.8792  -23.4940   26.1632 C   0  0  0  0  0  0
   -2.8771  -23.0032   29.4923 O   0  0  0  0  0  0
   -0.6887  -22.0154   28.6416 O   0  0  0  0  0  0
   -3.1673  -17.3920   27.3481 C   0  0  0  0  0  0
   -0.8455  -14.7064   27.8910 N   0  0  0  0  0  0
   -0.5492  -13.3122   27.5661 C   0  0  0  0  0  0
    0.8587  -12.9991   27.0373 C   0  0  0  0  0  0
    1.7492  -12.0200   27.5677 C   0  0  0  0  0  0
    1.5175  -11.1243   28.7450 C   0  0  0  0  0  0
    0.2702  -11.0544   29.1013 F   0  0  0  0  0  0
    2.2337  -11.5560   29.7752 F   0  0  0  0  0  0
    1.9142   -9.8955   28.4434 F   0  0  0  0  0  0
    3.0468  -11.8842   27.0585 C   0  0  0  0  0  0
    3.5550  -12.7395   26.0770 C   0  0  0  0  0  0
    4.8689  -12.7729   25.7691 N   0  5  0  0  0  0
    6.1219  -12.0574   26.5367 S   0  0  0  0  0  0
    5.9293  -10.3409   25.9248 C   0  0  0  0  0  0
    7.2323   -9.6560   25.6084 C   0  0  0  0  0  0
    6.3797  -10.2066   24.4928 C   0  0  0  0  0  0
    5.9740  -12.0036   27.9980 O   0  0  0  0  0  0
    7.4174  -12.5291   26.0346 O   0  0  0  0  0  0
    2.6395  -13.6319   25.4804 C   0  0  0  0  0  0
    1.3121  -13.7389   25.9301 C   0  0  0  0  0  0
    0.0225  -17.3175   28.5486 H   0  0  0  0  0  0
   -0.4758  -19.6647   28.9812 H   0  0  0  0  0  0
   -5.5783  -19.1741   27.0090 H   0  0  0  0  0  0
   -6.1340  -21.7254   27.1409 H   0  0  0  0  0  0
   -4.8348  -22.8614   27.2011 H   0  0  0  0  0  0
   -5.5198  -22.2441   28.7043 H   0  0  0  0  0  0
   -2.9088  -22.8539   26.1897 H   0  0  0  0  0  0
   -2.9193  -25.3507   26.2586 H   0  0  0  0  0  0
   -3.7220  -24.7437   27.6946 H   0  0  0  0  0  0
   -2.0785  -25.3362   27.7959 H   0  0  0  0  0  0
   -0.9440  -24.1538   25.3017 H   0  0  0  0  0  0
   -0.5338  -22.5344   25.7983 H   0  0  0  0  0  0
   -0.1300  -23.9057   26.8389 H   0  0  0  0  0  0
   -3.9036  -16.7589   26.8763 H   0  0  0  0  0  0
   -0.8187  -14.9334   28.8856 H   0  0  0  0  0  0
   -1.2650  -12.9530   26.8237 H   0  0  0  0  0  0
   -0.8108  -12.8012   28.4813 H   0  0  0  0  0  0
    3.6911  -11.1764   27.5508 H   0  0  0  0  0  0
    5.0543   -9.8048   26.2895 H   0  0  0  0  0  0
    7.2776   -8.5724   25.6553 H   0  0  0  0  0  0
    8.1656  -10.1628   25.8505 H   0  0  0  0  0  0
    6.7354  -11.0973   23.9748 H   0  0  0  0  0  0
    5.8427   -9.4973   23.8668 H   0  0  0  0  0  0
    2.9842  -14.2982   24.7036 H   0  0  0  0  0  0
    0.6791  -14.4780   25.4707 H   0  0  0  0  0  0
  1  2  2  0  0  0
  2  3  1  0  0  0
  2 19  1  0  0  0
  3 18  1  0  0  0
  3  4  2  0  0  0
  4  5  1  0  0  0
  4 38  1  0  0  0
  5  6  2  0  0  0
  5 39  1  0  0  0
  6 11  1  0  0  0
  6  7  1  0  0  0
  7  8  1  0  0  0
  7 18  2  0  0  0
  8  9  2  0  0  0
  8 40  1  0  0  0
  9 10  1  0  0  0
  9 11  1  0  0  0
 10 41  1  0  0  0
 10 42  1  0  0  0
 10 43  1  0  0  0
 11 12  1  0  0  0
 12 13  1  0  0  0
 12 16  2  0  0  0
 12 17  2  0  0  0
 13 14  1  0  0  0
 13 15  1  0  0  0
 13 44  1  0  0  0
 14 45  1  0  0  0
 14 46  1  0  0  0
 14 47  1  0  0  0
 15 48  1  0  0  0
 15 49  1  0  0  0
 15 50  1  0  0  0
 18 51  1  0  0  0
 19 20  1  0  0  0
 19 52  1  0  0  0
 20 21  1  0  0  0
 20 53  1  0  0  0
 20 54  1  0  0  0
 21 37  1  0  0  0
 21 22  2  0  0  0
 22 23  1  0  0  0
 22 27  1  0  0  0
 23 24  1  0  0  0
 23 25  1  0  0  0
 23 26  1  0  0  0
 27 28  2  0  0  0
 27 55  1  0  0  0
 28 29  1  0  0  0
 28 36  1  0  0  0
 29 30  1  0  0  0
 30 31  1  0  0  0
 30 34  2  0  0  0
 30 35  2  0  0  0
 31 33  1  0  0  0
 31 32  1  0  0  0
 31 56  1  0  0  0
 32 33  1  0  0  0
 32 57  1  0  0  0
 32 58  1  0  0  0
 33 59  1  0  0  0
 33 60  1  0  0  0
 36 37  2  0  0  0
 36 61  1  0  0  0
 37 62  1  0  0  0
M  CHG  1  29  -1
M  END
> <s_m_entry_id>
100

> <s_m_entry_name>
sEH_lig_11o.1

> <s_m_Source_Path>
C:\Users\yujiethinkpad\Desktop\selection\selection\sEH_pose

> <s_m_Source_File>
sEH_lig_11o.sdf

> <i_m_Source_File_Index>
1

> <i_lp_mmshare_version>
51139

> <i_f3d_flags>
0

> <s_epik_input>
W0NIM11bQ0hdKFtDSDNdKVMoPU8pKD1PKW4xYyhbQ0gzXSlbY0hdYyhjMTIpW2NIXWMoW2NIXVtjSF0yKUMoPU8pW05IXVtDSDJdYzNjKEMoRikoRilGKVtjSF1jKFtjSF1bY0hdMylbTkhdUyg9TykoPU8pW0NIXTRbQ0gyXVtDSDJdNA==

> <s_epik_cmdline>
J2VwaWtfcHl0aG9uJywgJy1waHQnLCAnMi4wJywgJy1waCcsICc3LjAnLCAnLXRuJywgJzgnLCAnLW1hJywgJzIwMCcsICctaW1hZScsICc8aW5maWxlLm1hZT4nLCAnLW9tYWUnLCAnPG91dGZpbGUubWFlPic=

> <r_epik_Ionization_Penalty>
  1.2618

> <r_epik_Ionization_Penalty_Charging>
  1.2618

> <r_epik_Ionization_Penalty_Neutral>
  0.0000

> <r_epik_State_Penalty>
  1.3325

> <r_epik_Charging_Adjusted_Penalty>
2.59425

> <i_epik_Tot_Q>
-1

> <i_epik_Tot_abs_Q>
1

> <s_lp_Force_Field>
OPLS3e

> <r_lp_Energy>
43.7284

> <b_lp_Chiralities_Consistent>
1

> <s_lp_Variant>
/home/yujie/leadopt/data/result/selection/sEH/lig_11o.sdf:1-2

> <s_i_glide_gridfile>
glide-grid_sEH

> <i_i_glide_lignum>
2

> <i_i_glide_rotatable_bonds>
10

> <r_i_docking_score>
-10.971797454822

> <r_i_glide_ligand_efficiency>
-0.296535066346541

> <r_i_glide_ligand_efficiency_sa>
-0.988120626669885

> <r_i_glide_ligand_efficiency_ln>
-2.37952565252458

> <r_i_glide_gscore>
-12.304297454822

> <r_i_glide_lipo>
-4.66522251843297

> <r_i_glide_hbond>
-0.687193797486584

> <r_i_glide_metal>
0

> <r_i_glide_rewards>
-2.68872733525502

> <r_i_glide_evdw>
-52.0650634765625

> <r_i_glide_ecoul>
-12.802131652832

> <r_i_glide_erotb>
0.460419118105497

> <r_i_glide_esite>
-0.2

> <r_i_glide_emodel>
-84.0004618829987

> <r_i_glide_energy>
-64.8671951293945

> <r_i_glide_einternal>
5.36212539672852

> <i_i_glide_confnum>
70

> <i_i_glide_posenum>
221

> <r_i_glide_eff_state_penalty>
1.3325

> <s_m_job_name>
glide-dock_SP_all

> <r_glide_shape_similarity>
0.743041813373566

> <s_m_subgroup_title>
glide-dock_SP_all_pv1

> <s_m_subgroupid>
glide-dock_SP_all_pv1

> <b_m_subgroup_collapsed>
0

$$$$
