/home/yujie/leadopt/data/result/selection/sEH/lig_8g.sdf:1
                    3D
 Schrodinger Suite 2021-2.
 58 61  0  0  1  0            999 V2000
   -1.4961  -15.4393   25.6562 O   0  0  0  0  0  0
   -1.1362  -14.9750   26.7318 C   0  0  0  0  0  0
   -0.0520  -13.9393   26.7556 C   0  0  0  0  0  0
    0.7658  -13.7474   25.6225 C   0  0  0  0  0  0
    1.7254  -12.7279   25.5894 C   0  0  0  0  0  0
    1.8755  -11.8983   26.7045 C   0  0  0  0  0  0
    2.6968  -10.8128   26.9490 N   0  0  0  0  0  0
    3.6578  -10.2347   26.0291 C   0  0  0  0  0  0
    5.0756  -10.7536   26.1996 C   0  0  0  0  0  0
    6.0820  -10.2304   25.3726 C   0  0  0  0  0  0
    7.4006  -10.6863   25.4909 C   0  0  0  0  0  0
    8.3601  -10.1793   24.6867 F   0  0  0  0  0  0
    7.7269  -11.6607   26.4395 C   0  0  0  0  0  0
    6.7334  -12.1865   27.2725 C   0  0  0  0  0  0
    5.4124  -11.7371   27.1509 C   0  0  0  0  0  0
    2.4764  -10.3669   28.2374 C   0  0  0  0  0  0
    1.5080  -11.1198   28.8363 C   0  0  0  0  0  0
    1.0908  -12.0831   27.8733 C   0  0  0  0  0  0
    0.1181  -13.0965   27.8670 C   0  0  0  0  0  0
   -1.7107  -15.3292   27.8919 N   0  0  0  0  0  0
   -2.9458  -16.1100   27.9882 C   0  0  0  0  0  0
   -2.7915  -17.6274   27.9338 C   0  0  0  0  0  0
   -3.8182  -18.4779   27.4456 C   0  0  0  0  0  0
   -5.0881  -17.9128   26.8239 C   0  0  0  0  0  0
   -5.9061  -18.8764   26.4279 F   0  0  0  0  0  0
   -5.7320  -17.1590   27.7032 F   0  0  0  0  0  0
   -4.8009  -17.1794   25.7523 F   0  0  0  0  0  0
   -3.6199  -19.8779   27.4715 C   0  0  0  0  0  0
   -2.3924  -20.4215   27.8907 C   0  0  0  0  0  0
   -1.9933  -21.8251   27.4883 C   0  0  0  0  0  0
   -2.4825  -23.1251   28.6503 S   0  0  0  0  0  0
   -2.5408  -24.5654   27.5191 C   0  0  0  0  0  0
   -3.8369  -22.8329   29.1391 O   0  0  0  0  0  0
   -1.3772  -23.3400   29.5929 O   0  0  0  0  0  0
   -1.4162  -19.5826   28.4298 C   0  0  0  0  0  0
   -1.6106  -18.1981   28.4397 C   0  0  0  0  0  0
    0.6502  -14.3752   24.7510 H   0  0  0  0  0  0
    2.3326  -12.5777   24.7099 H   0  0  0  0  0  0
    3.3293  -10.4206   25.0070 H   0  0  0  0  0  0
    3.6541   -9.1536   26.1642 H   0  0  0  0  0  0
    5.8420   -9.4793   24.6313 H   0  0  0  0  0  0
    8.7451  -12.0097   26.5288 H   0  0  0  0  0  0
    6.9862  -12.9295   28.0150 H   0  0  0  0  0  0
    4.6672  -12.1546   27.8121 H   0  0  0  0  0  0
    3.0428   -9.5353   28.6337 H   0  0  0  0  0  0
    1.1127  -11.0103   29.8341 H   0  0  0  0  0  0
   -0.5114  -13.1953   28.7376 H   0  0  0  0  0  0
   -1.3557  -14.9349   28.7617 H   0  0  0  0  0  0
   -3.6401  -15.7443   27.2349 H   0  0  0  0  0  0
   -3.4022  -15.8654   28.9483 H   0  0  0  0  0  0
   -4.3574  -20.5407   27.0408 H   0  0  0  0  0  0
   -0.9119  -21.8930   27.4159 H   0  0  0  0  0  0
   -2.4111  -22.0555   26.5080 H   0  0  0  0  0  0
   -2.8027  -25.4544   28.0941 H   0  0  0  0  0  0
   -1.5650  -24.7063   27.0587 H   0  0  0  0  0  0
   -3.2947  -24.3996   26.7531 H   0  0  0  0  0  0
   -0.4711  -19.9836   28.7650 H   0  0  0  0  0  0
   -0.8258  -17.5710   28.8422 H   0  0  0  0  0  0
  1  2  2  0  0  0
  2  3  1  0  0  0
  2 20  1  0  0  0
  3 19  1  0  0  0
  3  4  2  0  0  0
  4  5  1  0  0  0
  4 37  1  0  0  0
  5  6  2  0  0  0
  5 38  1  0  0  0
  6  7  1  0  0  0
  6 18  1  0  0  0
  7  8  1  0  0  0
  7 16  1  0  0  0
  8  9  1  0  0  0
  8 39  1  0  0  0
  8 40  1  0  0  0
  9 15  1  0  0  0
  9 10  2  0  0  0
 10 11  1  0  0  0
 10 41  1  0  0  0
 11 12  1  0  0  0
 11 13  2  0  0  0
 13 14  1  0  0  0
 13 42  1  0  0  0
 14 15  2  0  0  0
 14 43  1  0  0  0
 15 44  1  0  0  0
 16 17  2  0  0  0
 16 45  1  0  0  0
 17 18  1  0  0  0
 17 46  1  0  0  0
 18 19  2  0  0  0
 19 47  1  0  0  0
 20 21  1  0  0  0
 20 48  1  0  0  0
 21 22  1  0  0  0
 21 49  1  0  0  0
 21 50  1  0  0  0
 22 36  1  0  0  0
 22 23  2  0  0  0
 23 24  1  0  0  0
 23 28  1  0  0  0
 24 25  1  0  0  0
 24 26  1  0  0  0
 24 27  1  0  0  0
 28 29  2  0  0  0
 28 51  1  0  0  0
 29 30  1  0  0  0
 29 35  1  0  0  0
 30 31  1  0  0  0
 30 52  1  0  0  0
 30 53  1  0  0  0
 31 32  1  0  0  0
 31 33  2  0  0  0
 31 34  2  0  0  0
 32 54  1  0  0  0
 32 55  1  0  0  0
 32 56  1  0  0  0
 35 36  2  0  0  0
 35 57  1  0  0  0
 36 58  1  0  0  0
M  END
> <s_m_entry_id>
61

> <s_m_entry_name>
sEH_lig_8g.1

> <s_m_Source_Path>
C:\Users\yujiethinkpad\Desktop\selection\selection\sEH_pose

> <s_m_Source_File>
sEH_lig_8g.sdf

> <i_m_Source_File_Index>
1

> <i_lp_mmshare_version>
51139

> <i_f3d_flags>
0

> <s_epik_input>
W0NIM11TKD1PKSg9TylbQ0gyXWMoW2NIXVtjSF0xKVtjSF1jKEMoRikoRilGKWMxW0NIMl1bTkhdQyg9TyljKFtjSF1bY0hdMilbY0hdYyhjMjMpW2NIXVtjSF1uM1tDSDJdYzRbY0hdYyhGKVtjSF1bY0hdW2NIXTQ=

> <s_epik_cmdline>
J2VwaWtfcHl0aG9uJywgJy1waHQnLCAnMi4wJywgJy1waCcsICc3LjAnLCAnLXRuJywgJzgnLCAnLW1hJywgJzIwMCcsICctaW1hZScsICc8aW5maWxlLm1hZT4nLCAnLW9tYWUnLCAnPG91dGZpbGUubWFlPic=

> <r_epik_Ionization_Penalty>
  0.0000

> <r_epik_Ionization_Penalty_Charging>
  0.0000

> <r_epik_Ionization_Penalty_Neutral>
  0.0000

> <r_epik_State_Penalty>
  0.0000

> <r_epik_Charging_Adjusted_Penalty>
0

> <i_epik_Tot_Q>
0

> <i_epik_Tot_abs_Q>
0

> <s_lp_Force_Field>
OPLS3e

> <r_lp_Energy>
30.3995

> <b_lp_Chiralities_Consistent>
1

> <s_lp_Variant>
/home/yujie/leadopt/data/result/selection/sEH/lig_8g.sdf:1-1

> <s_i_glide_gridfile>
glide-grid_sEH

> <i_i_glide_lignum>
31

> <i_i_glide_rotatable_bonds>
9

> <r_i_docking_score>
-12.7535716493343

> <r_i_glide_ligand_efficiency>
-0.354265879148176

> <r_i_glide_ligand_efficiency_sa>
-1.16976015831569

> <r_i_glide_ligand_efficiency_ln>
-2.7824847721978

> <r_i_glide_gscore>
-12.7535716493343

> <r_i_glide_lipo>
-5.06800516771226

> <r_i_glide_hbond>
-0.72

> <r_i_glide_metal>
0

> <r_i_glide_rewards>
-2.51008035301336

> <r_i_glide_evdw>
-55.3656272888184

> <r_i_glide_ecoul>
-13.4795980453491

> <r_i_glide_erotb>
0.534734942634561

> <r_i_glide_esite>
-0.2

> <r_i_glide_emodel>
-113.245275254069

> <r_i_glide_energy>
-68.8452253341675

> <r_i_glide_einternal>
4.85552835464478

> <i_i_glide_confnum>
150

> <i_i_glide_posenum>
85

> <r_i_glide_eff_state_penalty>
0

> <r_lp_tautomer_probability>
1

> <s_m_job_name>
glide-dock_SP_all

> <r_glide_shape_similarity>
0.908380031585693

> <s_m_subgroup_title>
glide-dock_SP_all_pv1

> <s_m_subgroupid>
glide-dock_SP_all_pv1

> <b_m_subgroup_collapsed>
0

$$$$
