/home/yujie/leadopt/data/result/selection/sEH/lig_11m.sdf:1
                    3D
 Schrodinger Suite 2021-2.
 60 64  0  0  1  0            999 V2000
   -1.5867  -15.3494   25.6475 O   0  0  0  0  0  0
   -1.1747  -14.9583   26.7406 C   0  0  0  0  0  0
   -0.0511  -13.9688   26.7809 C   0  0  0  0  0  0
    0.7703  -13.8622   25.6408 C   0  0  0  0  0  0
    1.7237  -12.8497   25.5562 C   0  0  0  0  0  0
    1.8672  -11.9279   26.6153 C   0  0  0  0  0  0
    2.6458  -10.7879   26.7426 N   0  0  0  0  0  0
    3.7056  -10.1693   25.5040 S   0  0  0  0  0  0
    5.3242  -10.6960   26.0266 C   0  0  0  0  0  0
    5.4833  -11.6640   27.0481 C   0  0  0  0  0  0
    6.7713  -12.1664   27.3146 C   0  0  0  0  0  0
    6.9461  -13.0943   28.2848 F   0  0  0  0  0  0
    7.8796  -11.7131   26.5650 C   0  0  0  0  0  0
    7.7158  -10.7269   25.5664 C   0  0  0  0  0  0
    6.4316  -10.2116   25.2975 C   0  0  0  0  0  0
    3.6023   -8.7029   25.5040 O   0  0  0  0  0  0
    3.4163  -10.8905   24.2546 O   0  0  0  0  0  0
    2.4793  -10.2596   28.0245 C   0  0  0  0  0  0
    1.5580  -11.0101   28.7213 C   0  0  0  0  0  0
    1.1131  -12.0519   27.8271 C   0  0  0  0  0  0
    0.1375  -13.0814   27.8756 C   0  0  0  0  0  0
   -1.7212  -15.3417   27.9001 N   0  0  0  0  0  0
   -2.9485  -16.1341   27.9790 C   0  0  0  0  0  0
   -2.7764  -17.6571   27.8835 C   0  0  0  0  0  0
   -3.8415  -18.4915   27.4411 C   0  0  0  0  0  0
   -5.1129  -17.9099   26.8073 C   0  0  0  0  0  0
   -5.9475  -18.8680   26.4007 F   0  0  0  0  0  0
   -5.7551  -17.1553   27.6997 F   0  0  0  0  0  0
   -4.8108  -17.1707   25.7340 F   0  0  0  0  0  0
   -3.7378  -19.8936   27.6253 C   0  0  0  0  0  0
   -2.5956  -20.5062   28.1940 C   0  0  0  0  0  0
   -2.6396  -21.8276   28.4772 N   0  5  0  0  0  0
   -1.4952  -22.9871   28.3376 S   0  0  0  0  0  0
   -1.6311  -23.4069   26.5151 C   0  0  0  0  0  0
   -1.6395  -24.8929   26.1828 C   0  0  0  0  0  0
   -2.9263  -24.0971   26.1243 C   0  0  0  0  0  0
   -0.1201  -22.4959   28.5369 O   0  0  0  0  0  0
   -1.8776  -24.1939   29.0933 O   0  0  0  0  0  0
   -1.4936  -19.6661   28.4936 C   0  0  0  0  0  0
   -1.5856  -18.2646   28.3475 C   0  0  0  0  0  0
    0.6506  -14.5264   24.7962 H   0  0  0  0  0  0
    2.3012  -12.8025   24.6517 H   0  0  0  0  0  0
    4.6465  -12.0566   27.6050 H   0  0  0  0  0  0
    8.8578  -12.1274   26.7631 H   0  0  0  0  0  0
    8.5677  -10.3795   24.9994 H   0  0  0  0  0  0
    6.2880   -9.4853   24.5094 H   0  0  0  0  0  0
    3.0252   -9.3764   28.3252 H   0  0  0  0  0  0
    1.1972  -10.8388   29.7251 H   0  0  0  0  0  0
   -0.4976  -13.1467   28.7442 H   0  0  0  0  0  0
   -1.3538  -14.9809   28.7859 H   0  0  0  0  0  0
   -3.3996  -15.9190   28.9482 H   0  0  0  0  0  0
   -3.6542  -15.7566   27.2430 H   0  0  0  0  0  0
   -4.5695  -20.5258   27.3537 H   0  0  0  0  0  0
   -1.1660  -22.6737   25.8573 H   0  0  0  0  0  0
   -1.2113  -25.2129   25.2355 H   0  0  0  0  0  0
   -1.5097  -25.5959   27.0058 H   0  0  0  0  0  0
   -3.6679  -24.2478   26.9078 H   0  0  0  0  0  0
   -3.3284  -23.8724   25.1364 H   0  0  0  0  0  0
   -0.5900  -20.0788   28.9205 H   0  0  0  0  0  0
   -0.7573  -17.6582   28.6810 H   0  0  0  0  0  0
  1  2  2  0  0  0
  2  3  1  0  0  0
  2 22  1  0  0  0
  3 21  1  0  0  0
  3  4  2  0  0  0
  4  5  1  0  0  0
  4 41  1  0  0  0
  5  6  2  0  0  0
  5 42  1  0  0  0
  6  7  1  0  0  0
  6 20  1  0  0  0
  7  8  1  0  0  0
  7 18  1  0  0  0
  8  9  1  0  0  0
  8 16  2  0  0  0
  8 17  2  0  0  0
  9 15  1  0  0  0
  9 10  2  0  0  0
 10 11  1  0  0  0
 10 43  1  0  0  0
 11 12  1  0  0  0
 11 13  2  0  0  0
 13 14  1  0  0  0
 13 44  1  0  0  0
 14 15  2  0  0  0
 14 45  1  0  0  0
 15 46  1  0  0  0
 18 19  2  0  0  0
 18 47  1  0  0  0
 19 20  1  0  0  0
 19 48  1  0  0  0
 20 21  2  0  0  0
 21 49  1  0  0  0
 22 23  1  0  0  0
 22 50  1  0  0  0
 23 24  1  0  0  0
 23 51  1  0  0  0
 23 52  1  0  0  0
 24 40  1  0  0  0
 24 25  2  0  0  0
 25 26  1  0  0  0
 25 30  1  0  0  0
 26 27  1  0  0  0
 26 28  1  0  0  0
 26 29  1  0  0  0
 30 31  2  0  0  0
 30 53  1  0  0  0
 31 32  1  0  0  0
 31 39  1  0  0  0
 32 33  1  0  0  0
 33 34  1  0  0  0
 33 37  2  0  0  0
 33 38  2  0  0  0
 34 36  1  0  0  0
 34 35  1  0  0  0
 34 54  1  0  0  0
 35 36  1  0  0  0
 35 55  1  0  0  0
 35 56  1  0  0  0
 36 57  1  0  0  0
 36 58  1  0  0  0
 39 40  2  0  0  0
 39 59  1  0  0  0
 40 60  1  0  0  0
M  CHG  1  32  -1
M  END
> <s_m_entry_id>
66

> <s_m_entry_name>
sEH_lig_11m.1

> <s_m_Source_Path>
C:\Users\yujiethinkpad\Desktop\selection\selection\sEH_pose

> <s_m_Source_File>
sEH_lig_11m.sdf

> <i_m_Source_File_Index>
1

> <i_lp_mmshare_version>
51139

> <i_f3d_flags>
0

> <s_epik_input>
W0NIMl0xW0NIMl1bQ0hdMVMoPU8pKD1PKVtOSF1jKFtjSF1bY0hdMilbY0hdYyhDKEYpKEYpRiljMltDSDJdW05IXUMoPU8pYyhbY0hdW2NIXTMpW2NIXWMoYzM0KVtjSF1bY0hdbjRTKD1PKSg9TyljNVtjSF1jKEYpW2NIXVtjSF1bY0hdNQ==

> <s_epik_cmdline>
J2VwaWtfcHl0aG9uJywgJy1waHQnLCAnMi4wJywgJy1waCcsICc3LjAnLCAnLXRuJywgJzgnLCAnLW1hJywgJzIwMCcsICctaW1hZScsICc8aW5maWxlLm1hZT4nLCAnLW9tYWUnLCAnPG91dGZpbGUubWFlPic=

> <r_epik_Ionization_Penalty>
  1.2618

> <r_epik_Ionization_Penalty_Charging>
  1.2618

> <r_epik_Ionization_Penalty_Neutral>
  0.0000

> <r_epik_State_Penalty>
  1.3325

> <r_epik_Charging_Adjusted_Penalty>
2.59425

> <i_epik_Tot_Q>
-1

> <i_epik_Tot_abs_Q>
1

> <s_lp_Force_Field>
OPLS3e

> <r_lp_Energy>
55.3392

> <b_lp_Chiralities_Consistent>
1

> <s_lp_Variant>
/home/yujie/leadopt/data/result/selection/sEH/lig_11m.sdf:1-2

> <s_i_glide_gridfile>
glide-grid_sEH

> <i_i_glide_lignum>
51

> <i_i_glide_rotatable_bonds>
10

> <r_i_docking_score>
-12.27791170441

> <r_i_glide_ligand_efficiency>
-0.30694779261025

> <r_i_glide_ligand_efficiency_sa>
-1.04974668320727

> <r_i_glide_ligand_efficiency_ln>
-2.61851724373882

> <r_i_glide_gscore>
-13.61041170441

> <r_i_glide_lipo>
-5.06175543941505

> <r_i_glide_hbond>
-0.72

> <r_i_glide_metal>
0

> <r_i_glide_rewards>
-2.69875238409965

> <r_i_glide_evdw>
-62.5462608337402

> <r_i_glide_ecoul>
-14.8286218643188

> <r_i_glide_erotb>
0.421702440439532

> <r_i_glide_esite>
-0.2

> <r_i_glide_emodel>
-137.212707145356

> <r_i_glide_energy>
-77.3748826980591

> <r_i_glide_einternal>
8.14294147491455

> <i_i_glide_confnum>
31

> <i_i_glide_posenum>
121

> <r_i_glide_eff_state_penalty>
1.3325

> <s_m_job_name>
glide-dock_SP_all

> <r_glide_shape_similarity>
0.957191646099091

> <s_m_subgroup_title>
glide-dock_SP_all_pv1

> <s_m_subgroupid>
glide-dock_SP_all_pv1

> <b_m_subgroup_collapsed>
0

$$$$
