/home/yujie/leadopt/data/result/selection/sEH/lig_7a.sdf:1
                    3D
 Schrodinger Suite 2021-2.
 53 56  0  0  1  0            999 V2000
   -1.5634  -15.4408   25.6579 O   0  0  0  0  0  0
   -1.1680  -15.0088   26.7328 C   0  0  0  0  0  0
   -0.0763  -13.9988   26.7443 C   0  0  0  0  0  0
    0.7202  -13.8232   25.5825 C   0  0  0  0  0  0
    1.6872  -12.8083   25.5002 C   0  0  0  0  0  0
    1.8236  -11.9947   26.6194 C   0  0  0  0  0  0
    2.6525  -10.9165   26.8618 N   0  0  0  0  0  0
    3.6333  -10.3474   25.9467 C   0  0  0  0  0  0
    5.0687  -10.7901   26.1733 C   0  0  0  0  0  0
    6.0773  -10.2476   25.3615 C   0  0  0  0  0  0
    7.4026  -10.6892   25.4865 C   0  0  0  0  0  0
    7.7305  -11.6659   26.4365 C   0  0  0  0  0  0
    6.7383  -12.1871   27.2735 C   0  0  0  0  0  0
    5.4135  -11.7542   27.1407 C   0  0  0  0  0  0
    2.4518  -10.5378   28.1235 C   0  0  0  0  0  0
    1.4662  -11.2437   28.6666 N   0  0  0  0  0  0
    3.1184   -9.7327   28.7005 O   0  0  0  0  0  0
    1.0704  -12.1827   27.7519 C   0  0  0  0  0  0
    0.0958  -13.1601   27.8586 C   0  0  0  0  0  0
   -1.7143  -15.3655   27.8989 N   0  0  0  0  0  0
   -2.9428  -16.1430   27.9822 C   0  0  0  0  0  0
   -2.7808  -17.6599   27.8868 C   0  0  0  0  0  0
   -3.8374  -18.4866   27.4392 C   0  0  0  0  0  0
   -5.0979  -17.9110   26.8113 C   0  0  0  0  0  0
   -5.7349  -17.1614   27.6970 F   0  0  0  0  0  0
   -4.8066  -17.1754   25.7439 F   0  0  0  0  0  0
   -5.9275  -18.8636   26.4108 F   0  0  0  0  0  0
   -3.7361  -19.8819   27.6040 C   0  0  0  0  0  0
   -2.5877  -20.4846   28.1314 C   0  0  0  0  0  0
   -2.6076  -21.8550   28.2561 O   0  0  0  0  0  0
   -1.3807  -22.5421   28.4438 C   0  0  0  0  0  0
   -1.5008  -19.6607   28.4787 C   0  0  0  0  0  0
   -1.6004  -18.2652   28.3536 C   0  0  0  0  0  0
    0.5815  -14.4586   24.7198 H   0  0  0  0  0  0
    2.2819  -12.6652   24.6106 H   0  0  0  0  0  0
    3.3531  -10.5797   24.9196 H   0  0  0  0  0  0
    3.5938   -9.2600   26.0258 H   0  0  0  0  0  0
    5.8308   -9.5089   24.6141 H   0  0  0  0  0  0
    8.1703  -10.2802   24.8472 H   0  0  0  0  0  0
    8.7493  -12.0094   26.5330 H   0  0  0  0  0  0
    6.9921  -12.9282   28.0166 H   0  0  0  0  0  0
    4.6732  -12.1992   27.7856 H   0  0  0  0  0  0
    1.1198  -11.1850   29.6093 H   0  0  0  0  0  0
   -0.5102  -13.2368   28.7455 H   0  0  0  0  0  0
   -1.3570  -14.9700   28.7689 H   0  0  0  0  0  0
   -3.6526  -15.7590   27.2519 H   0  0  0  0  0  0
   -3.3899  -15.9265   28.9533 H   0  0  0  0  0  0
   -4.5514  -20.5254   27.3091 H   0  0  0  0  0  0
   -1.5353  -23.6051   28.2566 H   0  0  0  0  0  0
   -1.0214  -22.4418   29.4678 H   0  0  0  0  0  0
   -0.6075  -22.1962   27.7572 H   0  0  0  0  0  0
   -0.5884  -20.0766   28.8818 H   0  0  0  0  0  0
   -0.7744  -17.6575   28.6941 H   0  0  0  0  0  0
  1  2  2  0  0  0
  2  3  1  0  0  0
  2 20  1  0  0  0
  3 19  1  0  0  0
  3  4  2  0  0  0
  4  5  1  0  0  0
  4 34  1  0  0  0
  5  6  2  0  0  0
  5 35  1  0  0  0
  6  7  1  0  0  0
  6 18  1  0  0  0
  7  8  1  0  0  0
  7 15  1  0  0  0
  8  9  1  0  0  0
  8 36  1  0  0  0
  8 37  1  0  0  0
  9 14  1  0  0  0
  9 10  2  0  0  0
 10 11  1  0  0  0
 10 38  1  0  0  0
 11 12  2  0  0  0
 11 39  1  0  0  0
 12 13  1  0  0  0
 12 40  1  0  0  0
 13 14  2  0  0  0
 13 41  1  0  0  0
 14 42  1  0  0  0
 15 16  1  0  0  0
 15 17  2  0  0  0
 16 18  1  0  0  0
 16 43  1  0  0  0
 18 19  2  0  0  0
 19 44  1  0  0  0
 20 21  1  0  0  0
 20 45  1  0  0  0
 21 22  1  0  0  0
 21 46  1  0  0  0
 21 47  1  0  0  0
 22 33  1  0  0  0
 22 23  2  0  0  0
 23 24  1  0  0  0
 23 28  1  0  0  0
 24 25  1  0  0  0
 24 26  1  0  0  0
 24 27  1  0  0  0
 28 29  2  0  0  0
 28 48  1  0  0  0
 29 30  1  0  0  0
 29 32  1  0  0  0
 30 31  1  0  0  0
 31 49  1  0  0  0
 31 50  1  0  0  0
 31 51  1  0  0  0
 32 33  2  0  0  0
 32 52  1  0  0  0
 33 53  1  0  0  0
M  END
> <s_m_entry_id>
85

> <s_m_entry_name>
sEH_lig_7a.1

> <s_m_Source_Path>
C:\Users\yujiethinkpad\Desktop\selection\selection\sEH_pose

> <s_m_Source_File>
sEH_lig_7a.sdf

> <i_m_Source_File_Index>
1

> <i_lp_mmshare_version>
51139

> <i_f3d_flags>
0

> <s_epik_input>
W0NIM11PYyhbY0hdW2NIXTEpW2NIXWMoQyhGKShGKUYpYzFbQ0gyXVtOSF1DKD1PKWMoW2NIXVtjSF0yKVtjSF1jKGMyMylbbkhdYyg9TyluM1tDSDJdYzRbY0hdW2NIXVtjSF1bY0hdW2NIXTQ=

> <s_epik_cmdline>
J2VwaWtfcHl0aG9uJywgJy1waHQnLCAnMi4wJywgJy1waCcsICc3LjAnLCAnLXRuJywgJzgnLCAnLW1hJywgJzIwMCcsICctaW1hZScsICc8aW5maWxlLm1hZT4nLCAnLW9tYWUnLCAnPG91dGZpbGUubWFlPic=

> <r_epik_Ionization_Penalty>
  0.0000

> <r_epik_Ionization_Penalty_Charging>
  0.0000

> <r_epik_Ionization_Penalty_Neutral>
  0.0000

> <r_epik_State_Penalty>
  0.0000

> <r_epik_Charging_Adjusted_Penalty>
2.2531e-05

> <i_epik_Tot_Q>
0

> <i_epik_Tot_abs_Q>
0

> <s_lp_Force_Field>
OPLS3e

> <r_lp_Energy>
37.547

> <b_lp_Chiralities_Consistent>
1

> <s_lp_Variant>
/home/yujie/leadopt/data/result/selection/sEH/lig_7a.sdf:1-1

> <s_i_glide_gridfile>
glide-grid_sEH

> <i_i_glide_lignum>
18

> <i_i_glide_rotatable_bonds>
8

> <r_i_docking_score>
-11.4416300238684

> <r_i_glide_ligand_efficiency>
-0.346716061329344

> <r_i_glide_ligand_efficiency_sa>
-1.11210366817865

> <r_i_glide_ligand_efficiency_ln>
-2.5445592757186

> <r_i_glide_gscore>
-11.4416300238684

> <r_i_glide_lipo>
-4.24679943395238

> <r_i_glide_hbond>
-0.72

> <r_i_glide_metal>
0

> <r_i_glide_rewards>
-2.85031564586774

> <r_i_glide_evdw>
-47.9549255371094

> <r_i_glide_ecoul>
-10.7192764282227

> <r_i_glide_erotb>
0.581122797040634

> <r_i_glide_esite>
-0.2

> <r_i_glide_emodel>
-88.7777340602385

> <r_i_glide_energy>
-58.674201965332

> <r_i_glide_einternal>
1.14630901813507

> <i_i_glide_confnum>
51

> <i_i_glide_posenum>
96

> <r_i_glide_eff_state_penalty>
0

> <r_lp_tautomer_probability>
1

> <s_m_job_name>
glide-dock_SP_all

> <r_glide_shape_similarity>
0.87494170665741

> <s_m_subgroup_title>
glide-dock_SP_all_pv1

> <s_m_subgroupid>
glide-dock_SP_all_pv1

> <b_m_subgroup_collapsed>
0

$$$$
