/home/yujie/leadopt/data/result/selection/sEH/lig_9c.sdf:1
                    3D
 Schrodinger Suite 2021-2.
 54 57  0  0  1  0            999 V2000
   -1.4922  -15.4290   25.6514 O   0  0  0  0  0  0
   -1.1418  -14.9635   26.7301 C   0  0  0  0  0  0
   -0.0506  -13.9378   26.7574 C   0  0  0  0  0  0
    0.7706  -13.7495   25.6265 C   0  0  0  0  0  0
    1.7296  -12.7288   25.5925 C   0  0  0  0  0  0
    1.8751  -11.8966   26.7061 C   0  0  0  0  0  0
    2.6972  -10.8112   26.9489 N   0  0  0  0  0  0
    3.6589  -10.2328   26.0299 C   0  0  0  0  0  0
    5.0760  -10.7596   26.1954 C   0  0  0  0  0  0
    6.0826  -10.2380   25.3670 C   0  0  0  0  0  0
    7.4030  -10.6922   25.4856 C   0  0  0  0  0  0
    8.3643  -10.1868   24.6863 F   0  0  0  0  0  0
    7.7277  -11.6668   26.4352 C   0  0  0  0  0  0
    6.7347  -12.1871   27.2714 C   0  0  0  0  0  0
    5.4123  -11.7419   27.1471 C   0  0  0  0  0  0
    2.4782  -10.3679   28.2390 C   0  0  0  0  0  0
    1.5067  -11.1180   28.8361 C   0  0  0  0  0  0
    1.0914  -12.0816   27.8746 C   0  0  0  0  0  0
    0.1193  -13.0956   27.8678 C   0  0  0  0  0  0
   -1.7409  -15.3035   27.8824 N   0  0  0  0  0  0
   -2.9598  -16.1167   27.9424 C   0  0  0  0  0  0
   -2.7328  -17.6228   27.9346 C   0  0  0  0  0  0
   -3.7160  -18.5459   27.5071 C   0  0  0  0  0  0
   -5.2130  -17.9932   26.8555 Cl  0  0  0  0  0  0
   -3.4722  -19.9374   27.6070 C   0  0  0  0  0  0
   -2.2437  -20.4009   28.1298 C   0  0  0  0  0  0
   -1.8327  -21.7299   28.2376 N   0  0  0  0  0  0
   -2.6893  -23.1993   28.1232 S   0  0  0  0  0  0
   -2.5613  -23.6017   26.3417 C   0  0  0  0  0  0
   -4.0775  -22.8928   28.4899 O   0  0  0  0  0  0
   -1.8866  -24.1627   28.8910 O   0  0  0  0  0  0
   -1.2913  -19.4768   28.5499 C   0  0  0  0  0  0
   -1.5192  -18.1086   28.4386 C   0  0  0  0  0  0
    0.6579  -14.3757   24.7542 H   0  0  0  0  0  0
    2.3390  -12.5860   24.7138 H   0  0  0  0  0  0
    3.3249  -10.4129   25.0073 H   0  0  0  0  0  0
    3.6559   -9.1507   26.1646 H   0  0  0  0  0  0
    5.8442   -9.4838   24.6327 H   0  0  0  0  0  0
    8.7447  -12.0164   26.5235 H   0  0  0  0  0  0
    6.9860  -12.9387   28.0041 H   0  0  0  0  0  0
    4.6679  -12.1704   27.7989 H   0  0  0  0  0  0
    3.0399   -9.5356   28.6393 H   0  0  0  0  0  0
    1.1145  -11.0043   29.8358 H   0  0  0  0  0  0
   -0.5109  -13.2017   28.7377 H   0  0  0  0  0  0
   -1.3910  -14.9323   28.7654 H   0  0  0  0  0  0
   -3.6283  -15.8265   27.1309 H   0  0  0  0  0  0
   -3.4795  -15.8616   28.8671 H   0  0  0  0  0  0
   -4.2169  -20.6383   27.2627 H   0  0  0  0  0  0
   -0.8977  -21.8429   28.5995 H   0  0  0  0  0  0
   -3.0916  -24.5343   26.1478 H   0  0  0  0  0  0
   -1.5131  -23.7094   26.0695 H   0  0  0  0  0  0
   -3.0135  -22.7953   25.7640 H   0  0  0  0  0  0
   -0.3495  -19.8114   28.9655 H   0  0  0  0  0  0
   -0.7491  -17.4381   28.7928 H   0  0  0  0  0  0
  1  2  2  0  0  0
  2  3  1  0  0  0
  2 20  1  0  0  0
  3 19  1  0  0  0
  3  4  2  0  0  0
  4  5  1  0  0  0
  4 34  1  0  0  0
  5  6  2  0  0  0
  5 35  1  0  0  0
  6  7  1  0  0  0
  6 18  1  0  0  0
  7  8  1  0  0  0
  7 16  1  0  0  0
  8  9  1  0  0  0
  8 36  1  0  0  0
  8 37  1  0  0  0
  9 15  1  0  0  0
  9 10  2  0  0  0
 10 11  1  0  0  0
 10 38  1  0  0  0
 11 12  1  0  0  0
 11 13  2  0  0  0
 13 14  1  0  0  0
 13 39  1  0  0  0
 14 15  2  0  0  0
 14 40  1  0  0  0
 15 41  1  0  0  0
 16 17  2  0  0  0
 16 42  1  0  0  0
 17 18  1  0  0  0
 17 43  1  0  0  0
 18 19  2  0  0  0
 19 44  1  0  0  0
 20 21  1  0  0  0
 20 45  1  0  0  0
 21 22  1  0  0  0
 21 46  1  0  0  0
 21 47  1  0  0  0
 22 33  1  0  0  0
 22 23  2  0  0  0
 23 24  1  0  0  0
 23 25  1  0  0  0
 25 26  2  0  0  0
 25 48  1  0  0  0
 26 27  1  0  0  0
 26 32  1  0  0  0
 27 28  1  0  0  0
 27 49  1  0  0  0
 28 29  1  0  0  0
 28 30  2  0  0  0
 28 31  2  0  0  0
 29 50  1  0  0  0
 29 51  1  0  0  0
 29 52  1  0  0  0
 32 33  2  0  0  0
 32 53  1  0  0  0
 33 54  1  0  0  0
M  END
> <s_m_entry_id>
82

> <s_m_entry_name>
sEH_lig_9c.1

> <s_m_Source_Path>
C:\Users\yujiethinkpad\Desktop\selection\selection\sEH_pose

> <s_m_Source_File>
sEH_lig_9c.sdf

> <i_m_Source_File_Index>
1

> <i_lp_mmshare_version>
51139

> <i_f3d_flags>
0

> <s_epik_input>
W0NIM11TKD1PKSg9TylbTkhdYyhbY0hdW2NIXTEpW2NIXWMoQ2wpYzFbQ0gyXVtOSF1DKD1PKWMoW2NIXVtjSF0yKVtjSF1jKGMyMylbY0hdW2NIXW4zW0NIMl1jNFtjSF1jKEYpW2NIXVtjSF1bY0hdNA==

> <s_epik_cmdline>
J2VwaWtfcHl0aG9uJywgJy1waHQnLCAnMi4wJywgJy1waCcsICc3LjAnLCAnLXRuJywgJzgnLCAnLW1hJywgJzIwMCcsICctaW1hZScsICc8aW5maWxlLm1hZT4nLCAnLW9tYWUnLCAnPG91dGZpbGUubWFlPic=

> <r_epik_Ionization_Penalty>
  0.0679

> <r_epik_Ionization_Penalty_Charging>
  0.0000

> <r_epik_Ionization_Penalty_Neutral>
  0.0679

> <r_epik_State_Penalty>
  0.0593

> <r_epik_Charging_Adjusted_Penalty>
0.0593446

> <i_epik_Tot_Q>
0

> <i_epik_Tot_abs_Q>
0

> <s_lp_Force_Field>
OPLS3e

> <r_lp_Energy>
32.0639

> <b_lp_Chiralities_Consistent>
1

> <s_lp_Variant>
/home/yujie/leadopt/data/result/selection/sEH/lig_9c.sdf:1-1

> <s_i_glide_gridfile>
glide-grid_sEH

> <i_i_glide_lignum>
34

> <i_i_glide_rotatable_bonds>
8

> <r_i_docking_score>
-11.4964622611202

> <r_i_glide_ligand_efficiency>
-0.348377644276369

> <r_i_glide_ligand_efficiency_sa>
-1.11743325251716

> <r_i_glide_ligand_efficiency_ln>
-2.55675368137728

> <r_i_glide_gscore>
-11.5557622611202

> <r_i_glide_lipo>
-4.9671697943149

> <r_i_glide_hbond>
-0.72

> <r_i_glide_metal>
0

> <r_i_glide_rewards>
-1.73676351818573

> <r_i_glide_evdw>
-55.4893264770508

> <r_i_glide_ecoul>
-11.7309408187866

> <r_i_glide_erotb>
0.602278498050971

> <r_i_glide_esite>
-0.2

> <r_i_glide_emodel>
-106.863547355907

> <r_i_glide_energy>
-67.2202672958374

> <r_i_glide_einternal>
1.54140853881836

> <i_i_glide_confnum>
150

> <i_i_glide_posenum>
35

> <r_i_glide_eff_state_penalty>
0.0593

> <s_m_job_name>
glide-dock_SP_all

> <r_glide_shape_similarity>
0.873296558856964

> <s_m_subgroup_title>
glide-dock_SP_all_pv1

> <s_m_subgroupid>
glide-dock_SP_all_pv1

> <b_m_subgroup_collapsed>
0

$$$$
