/home/yujie/leadopt/data/result/selection/sEH/lig_10b.sdf:1
                    3D
 Schrodinger Suite 2021-2.
 60 63  0  0  1  0            999 V2000
   -1.5483  -15.3391   25.6476 O   0  0  0  0  0  0
   -1.1466  -14.9489   26.7371 C   0  0  0  0  0  0
   -0.0505  -13.9343   26.7644 C   0  0  0  0  0  0
    0.7720  -13.7512   25.6356 C   0  0  0  0  0  0
    1.7366  -12.7378   25.6052 C   0  0  0  0  0  0
    1.8866  -11.8975   26.7159 C   0  0  0  0  0  0
    2.7110  -10.8099   26.9823 N   0  0  0  0  0  0
    3.7129  -10.1783   26.1375 C   0  0  2  0  0  0
    3.2604  -10.0140   24.7008 C   0  0  0  0  0  0
    5.1039  -10.7642   26.2359 C   0  0  0  0  0  0
    6.1154  -10.2460   25.4065 C   0  0  0  0  0  0
    7.4257  -10.7195   25.5122 C   0  0  0  0  0  0
    8.3917  -10.2141   24.7169 F   0  0  0  0  0  0
    7.7417  -11.7075   26.4527 C   0  0  0  0  0  0
    6.7432  -12.2249   27.2894 C   0  0  0  0  0  0
    5.4261  -11.7624   27.1734 C   0  0  0  0  0  0
    2.4744  -10.3798   28.2745 C   0  0  0  0  0  0
    1.4922  -11.1254   28.8485 C   0  0  0  0  0  0
    1.0901  -12.0806   27.8774 C   0  0  0  0  0  0
    0.1142  -13.0897   27.8691 C   0  0  0  0  0  0
   -1.6922  -15.3503   27.8971 N   0  0  0  0  0  0
   -2.9273  -16.1328   27.9651 C   0  0  0  0  0  0
   -2.7766  -17.6532   27.8805 C   0  0  0  0  0  0
   -3.8364  -18.4829   27.4372 C   0  0  0  0  0  0
   -5.0980  -17.9109   26.8089 C   0  0  0  0  0  0
   -5.9241  -18.8673   26.4073 F   0  0  0  0  0  0
   -5.7325  -17.1627   27.6981 F   0  0  0  0  0  0
   -4.8073  -17.1761   25.7411 F   0  0  0  0  0  0
   -3.7399  -19.8765   27.6202 C   0  0  0  0  0  0
   -2.6021  -20.4612   28.1885 C   0  0  0  0  0  0
   -2.6400  -21.8188   28.5080 N   0  0  0  0  0  0
   -1.4677  -23.0634   28.2462 S   0  0  0  0  0  0
   -1.8009  -23.5677   26.5245 C   0  0  0  0  0  0
   -1.8427  -24.1613   29.1449 O   0  0  0  0  0  0
   -0.1355  -22.4510   28.3117 O   0  0  0  0  0  0
   -1.5018  -19.6483   28.4925 C   0  0  0  0  0  0
   -1.5947  -18.2568   28.3471 C   0  0  0  0  0  0
    0.6641  -14.3825   24.7652 H   0  0  0  0  0  0
    2.3490  -12.6293   24.7273 H   0  0  0  0  0  0
    3.8153   -9.1649   26.5217 H   0  0  0  0  0  0
    3.7967   -9.2184   24.1844 H   0  0  0  0  0  0
    3.3847  -10.9168   24.1076 H   0  0  0  0  0  0
    2.2191   -9.7338   24.7015 H   0  0  0  0  0  0
    5.9096   -9.4633   24.6941 H   0  0  0  0  0  0
    8.7552  -12.0692   26.5328 H   0  0  0  0  0  0
    6.9850  -12.9786   28.0249 H   0  0  0  0  0  0
    4.6802  -12.1748   27.8360 H   0  0  0  0  0  0
    3.0330   -9.5562   28.6951 H   0  0  0  0  0  0
    1.0800  -11.0169   29.8407 H   0  0  0  0  0  0
   -0.5234  -13.1867   28.7342 H   0  0  0  0  0  0
   -1.3364  -14.9713   28.7754 H   0  0  0  0  0  0
   -3.6245  -15.7526   27.2200 H   0  0  0  0  0  0
   -3.3896  -15.9093   28.9268 H   0  0  0  0  0  0
   -4.5696  -20.5149   27.3549 H   0  0  0  0  0  0
   -3.5710  -22.1758   28.6237 H   0  0  0  0  0  0
   -1.1137  -24.3638   26.2444 H   0  0  0  0  0  0
   -1.6540  -22.7111   25.8714 H   0  0  0  0  0  0
   -2.8263  -23.9272   26.4429 H   0  0  0  0  0  0
   -0.6043  -20.0687   28.9230 H   0  0  0  0  0  0
   -0.7638  -17.6500   28.6776 H   0  0  0  0  0  0
  1  2  2  0  0  0
  2  3  1  0  0  0
  2 21  1  0  0  0
  3 20  1  0  0  0
  3  4  2  0  0  0
  4  5  1  0  0  0
  4 38  1  0  0  0
  5  6  2  0  0  0
  5 39  1  0  0  0
  6  7  1  0  0  0
  6 19  1  0  0  0
  7  8  1  0  0  0
  7 17  1  0  0  0
  8  9  1  0  0  0
  8 10  1  0  0  0
  8 40  1  0  0  0
  9 41  1  0  0  0
  9 42  1  0  0  0
  9 43  1  0  0  0
 10 16  1  0  0  0
 10 11  2  0  0  0
 11 12  1  0  0  0
 11 44  1  0  0  0
 12 13  1  0  0  0
 12 14  2  0  0  0
 14 15  1  0  0  0
 14 45  1  0  0  0
 15 16  2  0  0  0
 15 46  1  0  0  0
 16 47  1  0  0  0
 17 18  2  0  0  0
 17 48  1  0  0  0
 18 19  1  0  0  0
 18 49  1  0  0  0
 19 20  2  0  0  0
 20 50  1  0  0  0
 21 22  1  0  0  0
 21 51  1  0  0  0
 22 23  1  0  0  0
 22 52  1  0  0  0
 22 53  1  0  0  0
 23 37  1  0  0  0
 23 24  2  0  0  0
 24 25  1  0  0  0
 24 29  1  0  0  0
 25 26  1  0  0  0
 25 27  1  0  0  0
 25 28  1  0  0  0
 29 30  2  0  0  0
 29 54  1  0  0  0
 30 31  1  0  0  0
 30 36  1  0  0  0
 31 32  1  0  0  0
 31 55  1  0  0  0
 32 33  1  0  0  0
 32 34  2  0  0  0
 32 35  2  0  0  0
 33 56  1  0  0  0
 33 57  1  0  0  0
 33 58  1  0  0  0
 36 37  2  0  0  0
 36 59  1  0  0  0
 37 60  1  0  0  0
M  END
> <s_m_entry_id>
59

> <s_m_entry_name>
sEH_lig_10b.1

> <s_m_Source_Path>
C:\Users\yujiethinkpad\Desktop\selection\selection\sEH_pose

> <s_m_Source_File>
sEH_lig_10b.sdf

> <i_m_Source_File_Index>
1

> <i_lp_mmshare_version>
51139

> <i_f3d_flags>
0

> <s_epik_input>
W0NIM11TKD1PKSg9TylbTkhdYyhbY0hdW2NIXTEpW2NIXWMoQyhGKShGKUYpYzFbQ0gyXVtOSF1DKD1PKWMoW2NIXVtjSF0yKVtjSF1jKGMyMylbY0hdW2NIXW4zW0NASF0oW0NIM10pYzRbY0hdYyhGKVtjSF1bY0hdW2NIXTQ=

> <s_epik_cmdline>
J2VwaWtfcHl0aG9uJywgJy1waHQnLCAnMi4wJywgJy1waCcsICc3LjAnLCAnLXRuJywgJzgnLCAnLW1hJywgJzIwMCcsICctaW1hZScsICc8aW5maWxlLm1hZT4nLCAnLW9tYWUnLCAnPG91dGZpbGUubWFlPic=

> <r_epik_Ionization_Penalty>
  0.0999

> <r_epik_Ionization_Penalty_Charging>
  0.0000

> <r_epik_Ionization_Penalty_Neutral>
  0.0999

> <r_epik_State_Penalty>
  0.0900

> <r_epik_Charging_Adjusted_Penalty>
0.0899504

> <i_epik_Tot_Q>
0

> <i_epik_Tot_abs_Q>
0

> <s_lp_Force_Field>
OPLS3e

> <r_lp_Energy>
39.7612

> <b_lp_Chiralities_Consistent>
1

> <s_lp_Variant>
/home/yujie/leadopt/data/result/selection/sEH/lig_10b.sdf:1-1

> <s_i_glide_gridfile>
glide-grid_sEH

> <i_i_glide_lignum>
36

> <i_i_glide_rotatable_bonds>
9

> <r_i_docking_score>
-12.9749606326855

> <r_i_glide_ligand_efficiency>
-0.350674611694202

> <r_i_glide_ligand_efficiency_sa>
-1.1685256024984

> <r_i_glide_ligand_efficiency_ln>
-2.81396478499543

> <r_i_glide_gscore>
-13.0649606326855

> <r_i_glide_lipo>
-5.10208916590008

> <r_i_glide_hbond>
-0.72

> <r_i_glide_metal>
0

> <r_i_glide_rewards>
-2.60382167008889

> <r_i_glide_evdw>
-60.3191795349121

> <r_i_glide_ecoul>
-12.869740486145

> <r_i_glide_erotb>
0.507370252970849

> <r_i_glide_esite>
-0.2

> <r_i_glide_emodel>
-124.739992977865

> <r_i_glide_energy>
-73.1889200210571

> <r_i_glide_einternal>
10.0273246765137

> <i_i_glide_confnum>
39

> <i_i_glide_posenum>
320

> <r_i_glide_eff_state_penalty>
0.09

> <s_m_job_name>
glide-dock_SP_all

> <r_glide_shape_similarity>
0.950521767139435

> <s_m_subgroup_title>
glide-dock_SP_all_pv1

> <s_m_subgroupid>
glide-dock_SP_all_pv1

> <b_m_subgroup_collapsed>
0

$$$$
