/home/yujie/leadopt/data/result/selection/sEH/lig_6m.sdf:1
                    3D
 Schrodinger Suite 2021-2.
 52 55  0  0  1  0            999 V2000
   -1.5027  -15.4342   25.6494 O   0  0  0  0  0  0
   -1.1381  -14.9846   26.7290 C   0  0  0  0  0  0
   -0.0608  -13.9490   26.7600 C   0  0  0  0  0  0
    0.7558  -13.7432   25.6151 C   0  0  0  0  0  0
    1.7174  -12.7150   25.5660 C   0  0  0  0  0  0
    1.8349  -11.9163   26.7030 C   0  0  0  0  0  0
    2.6841  -10.8612   27.0033 N   0  0  0  0  0  0
    3.6457  -10.2733   26.0809 C   0  0  0  0  0  0
    5.0820  -10.7669   26.2000 C   0  0  0  0  0  0
    5.4294  -11.7515   27.1478 C   0  0  0  0  0  0
    6.7482  -12.1933   27.2797 C   0  0  0  0  0  0
    7.7402  -11.6704   26.4473 C   0  0  0  0  0  0
    7.4129  -10.7017   25.4917 C   0  0  0  0  0  0
    6.0891  -10.2466   25.3545 C   0  0  0  0  0  0
    5.7693   -9.2534   24.2457 C   0  0  0  0  0  0
    5.0199   -9.8541   23.3240 F   0  0  0  0  0  0
    5.1187   -8.1867   24.7013 F   0  0  0  0  0  0
    6.8775   -8.8153   23.6494 F   0  0  0  0  0  0
    2.5750  -10.6258   28.3238 C   0  0  0  0  0  0
    1.4927  -11.2528   28.7845 N   0  0  0  0  0  0
    3.4340  -10.1327   29.0297 O   0  0  0  0  0  0
    1.0694  -12.1335   27.8193 C   0  0  0  0  0  0
    0.0971  -13.1222   27.8884 C   0  0  0  0  0  0
   -1.7042  -15.3530   27.8867 N   0  0  0  0  0  0
   -2.9351  -16.1370   27.9670 C   0  0  0  0  0  0
   -2.7806  -17.6565   27.8839 C   0  0  0  0  0  0
   -3.8393  -18.4872   27.4394 C   0  0  0  0  0  0
   -5.1001  -17.9116   26.8107 C   0  0  0  0  0  0
   -5.9295  -18.8652   26.4107 F   0  0  0  0  0  0
   -5.7349  -17.1605   27.6970 F   0  0  0  0  0  0
   -4.8077  -17.1769   25.7426 F   0  0  0  0  0  0
   -3.7342  -19.8849   27.6017 C   0  0  0  0  0  0
   -2.5802  -20.4678   28.1413 C   0  0  0  0  0  0
   -1.4984  -19.6504   28.4846 C   0  0  0  0  0  0
   -1.5980  -18.2576   28.3526 C   0  0  0  0  0  0
    0.6391  -14.3677   24.7417 H   0  0  0  0  0  0
    2.3306  -12.5595   24.6906 H   0  0  0  0  0  0
    3.2937  -10.4153   25.0594 H   0  0  0  0  0  0
    3.6287   -9.1996   26.2636 H   0  0  0  0  0  0
    4.6972  -12.2012   27.7991 H   0  0  0  0  0  0
    6.9973  -12.9420   28.0180 H   0  0  0  0  0  0
    8.7575  -12.0191   26.5378 H   0  0  0  0  0  0
    8.1969  -10.3272   24.8499 H   0  0  0  0  0  0
    1.2113  -11.3102   29.7487 H   0  0  0  0  0  0
   -0.5090  -13.2273   28.7731 H   0  0  0  0  0  0
   -1.3573  -14.9599   28.7618 H   0  0  0  0  0  0
   -3.6331  -15.7588   27.2228 H   0  0  0  0  0  0
   -3.3931  -15.9097   28.9307 H   0  0  0  0  0  0
   -4.5430  -20.5351   27.3022 H   0  0  0  0  0  0
   -2.5116  -21.5397   28.2570 H   0  0  0  0  0  0
   -0.5921  -20.0887   28.8799 H   0  0  0  0  0  0
   -0.7694  -17.6495   28.6862 H   0  0  0  0  0  0
  1  2  2  0  0  0
  2  3  1  0  0  0
  2 24  1  0  0  0
  3 23  1  0  0  0
  3  4  2  0  0  0
  4  5  1  0  0  0
  4 36  1  0  0  0
  5  6  2  0  0  0
  5 37  1  0  0  0
  6  7  1  0  0  0
  6 22  1  0  0  0
  7  8  1  0  0  0
  7 19  1  0  0  0
  8  9  1  0  0  0
  8 38  1  0  0  0
  8 39  1  0  0  0
  9 14  1  0  0  0
  9 10  2  0  0  0
 10 11  1  0  0  0
 10 40  1  0  0  0
 11 12  2  0  0  0
 11 41  1  0  0  0
 12 13  1  0  0  0
 12 42  1  0  0  0
 13 14  2  0  0  0
 13 43  1  0  0  0
 14 15  1  0  0  0
 15 16  1  0  0  0
 15 17  1  0  0  0
 15 18  1  0  0  0
 19 20  1  0  0  0
 19 21  2  0  0  0
 20 22  1  0  0  0
 20 44  1  0  0  0
 22 23  2  0  0  0
 23 45  1  0  0  0
 24 25  1  0  0  0
 24 46  1  0  0  0
 25 26  1  0  0  0
 25 47  1  0  0  0
 25 48  1  0  0  0
 26 35  1  0  0  0
 26 27  2  0  0  0
 27 28  1  0  0  0
 27 32  1  0  0  0
 28 29  1  0  0  0
 28 30  1  0  0  0
 28 31  1  0  0  0
 32 33  2  0  0  0
 32 49  1  0  0  0
 33 34  1  0  0  0
 33 50  1  0  0  0
 34 35  2  0  0  0
 34 51  1  0  0  0
 35 52  1  0  0  0
M  END
> <s_m_entry_id>
86

> <s_m_entry_name>
sEH_lig_6m.1

> <s_m_Source_Path>
C:\Users\yujiethinkpad\Desktop\selection\selection\sEH_pose

> <s_m_Source_File>
sEH_lig_6m.sdf

> <i_m_Source_File_Index>
1

> <i_lp_mmshare_version>
51139

> <i_f3d_flags>
0

> <s_epik_input>
W2NIXTFbY0hdW2NIXVtjSF1jKEMoRikoRilGKWMxW0NIMl1bTkhdQyg9TyljKFtjSF1bY0hdMilbY0hdYyhjMjMpW25IXWMoPU8pbjNbQ0gyXWM0W2NIXVtjSF1bY0hdW2NIXWM0QyhGKShGKUY=

> <s_epik_cmdline>
J2VwaWtfcHl0aG9uJywgJy1waHQnLCAnMi4wJywgJy1waCcsICc3LjAnLCAnLXRuJywgJzgnLCAnLW1hJywgJzIwMCcsICctaW1hZScsICc8aW5maWxlLm1hZT4nLCAnLW9tYWUnLCAnPG91dGZpbGUubWFlPic=

> <r_epik_Ionization_Penalty>
  0.0000

> <r_epik_Ionization_Penalty_Charging>
  0.0000

> <r_epik_Ionization_Penalty_Neutral>
  0.0000

> <r_epik_State_Penalty>
  0.0000

> <r_epik_Charging_Adjusted_Penalty>
2.36287e-05

> <i_epik_Tot_Q>
0

> <i_epik_Tot_abs_Q>
0

> <s_lp_Force_Field>
OPLS3e

> <r_lp_Energy>
38.8158

> <b_lp_Chiralities_Consistent>
1

> <s_lp_Variant>
/home/yujie/leadopt/data/result/selection/sEH/lig_6m.sdf:1-1

> <s_i_glide_gridfile>
glide-grid_sEH

> <i_i_glide_lignum>
16

> <i_i_glide_rotatable_bonds>
8

> <r_i_docking_score>
-11.4239729548643

> <r_i_glide_ligand_efficiency>
-0.326399227281838

> <r_i_glide_ligand_efficiency_sa>
-1.06767351476789

> <r_i_glide_ligand_efficiency_ln>
-2.507815605012

> <r_i_glide_gscore>
-11.4239729548643

> <r_i_glide_lipo>
-4.16605519103519

> <r_i_glide_hbond>
-0.72

> <r_i_glide_metal>
0

> <r_i_glide_rewards>
-2.73943757295249

> <r_i_glide_evdw>
-49.8341293334961

> <r_i_glide_ecoul>
-10.7256603240967

> <r_i_glide_erotb>
0.502075324412671

> <r_i_glide_esite>
-0.2

> <r_i_glide_emodel>
-87.0224441680545

> <r_i_glide_energy>
-60.5597896575928

> <r_i_glide_einternal>
2.18701648712158

> <i_i_glide_confnum>
1

> <i_i_glide_posenum>
370

> <r_i_glide_eff_state_penalty>
0

> <r_lp_tautomer_probability>
1

> <s_m_job_name>
glide-dock_SP_all

> <r_glide_shape_similarity>
0.840932786464691

> <s_m_subgroup_title>
glide-dock_SP_all_pv1

> <s_m_subgroupid>
glide-dock_SP_all_pv1

> <b_m_subgroup_collapsed>
0

$$$$
