/home/yujie/leadopt/data/result/selection/sEH/lig_11i.sdf:1
                    3D
 Schrodinger Suite 2021-2.
 57 60  0  0  1  0            999 V2000
   -1.4852  -15.4274   25.6385 O   0  0  0  0  0  0
   -1.1394  -14.9542   26.7151 C   0  0  0  0  0  0
   -0.0475  -13.9303   26.7492 C   0  0  0  0  0  0
    0.7723  -13.7418   25.6181 C   0  0  0  0  0  0
    1.7344  -12.7235   25.5899 C   0  0  0  0  0  0
    1.8837  -11.8974   26.7075 C   0  0  0  0  0  0
    2.7199  -10.8243   26.9565 N   0  0  0  0  0  0
    3.6860  -10.2508   26.0384 C   0  0  0  0  0  0
    4.9873  -11.0593   25.9192 C   0  0  0  0  0  0
    5.6180  -11.1994   27.1750 O   0  0  0  0  0  0
    6.7814  -12.0012   27.1150 C   0  0  0  0  0  0
    2.4827  -10.3658   28.2392 C   0  0  0  0  0  0
    1.5068  -11.1136   28.8342 C   0  0  0  0  0  0
    1.0957  -12.0785   27.8734 C   0  0  0  0  0  0
    0.1221  -13.0919   27.8645 C   0  0  0  0  0  0
   -1.7402  -15.2847   27.8655 N   0  0  0  0  0  0
   -2.9531  -16.0937   27.9369 C   0  0  0  0  0  0
   -2.7126  -17.5952   27.9314 C   0  0  0  0  0  0
   -3.6867  -18.5339   27.5145 C   0  0  0  0  0  0
   -4.9807  -18.0604   26.8664 C   0  0  0  0  0  0
   -5.6797  -17.3207   27.7172 F   0  0  0  0  0  0
   -4.7344  -17.3323   25.7802 F   0  0  0  0  0  0
   -5.7296  -19.0864   26.4904 F   0  0  0  0  0  0
   -3.4425  -19.9186   27.7282 C   0  0  0  0  0  0
   -2.2393  -20.3681   28.3326 C   0  0  0  0  0  0
   -1.8871  -21.6172   28.6754 N   0  5  0  0  0  0
   -2.5601  -23.0413   28.3513 S   0  0  0  0  0  0
   -2.0724  -23.2785   26.5893 C   0  0  0  0  0  0
   -1.4730  -24.6203   26.2382 C   0  0  0  0  0  0
   -2.9176  -24.3304   25.9224 C   0  0  0  0  0  0
   -1.9096  -24.1177   29.1122 O   0  0  0  0  0  0
   -4.0295  -22.9899   28.3875 O   0  0  0  0  0  0
   -1.2800  -19.4118   28.6642 C   0  0  0  0  0  0
   -1.5024  -18.0561   28.4629 C   0  0  0  0  0  0
    0.6558  -14.3575   24.7393 H   0  0  0  0  0  0
    2.3414  -12.5698   24.7103 H   0  0  0  0  0  0
    3.9131   -9.2373   26.3620 H   0  0  0  0  0  0
    3.2159  -10.1588   25.0604 H   0  0  0  0  0  0
    5.6639  -10.5668   25.2179 H   0  0  0  0  0  0
    4.7646  -12.0448   25.5112 H   0  0  0  0  0  0
    7.2232  -12.0808   28.1091 H   0  0  0  0  0  0
    7.5345  -11.5681   26.4535 H   0  0  0  0  0  0
    6.5467  -13.0110   26.7750 H   0  0  0  0  0  0
    3.0443   -9.5355   28.6385 H   0  0  0  0  0  0
    1.1054  -10.9992   29.8309 H   0  0  0  0  0  0
   -0.5090  -13.1976   28.7315 H   0  0  0  0  0  0
   -1.3816  -14.9268   28.7454 H   0  0  0  0  0  0
   -3.4572  -15.8395   28.8689 H   0  0  0  0  0  0
   -3.6305  -15.7844   27.1438 H   0  0  0  0  0  0
   -4.1931  -20.6396   27.4431 H   0  0  0  0  0  0
   -1.8362  -22.3619   26.0547 H   0  0  0  0  0  0
   -0.7739  -24.6529   25.4067 H   0  0  0  0  0  0
   -1.2680  -25.3281   27.0365 H   0  0  0  0  0  0
   -3.6682  -24.8447   26.5205 H   0  0  0  0  0  0
   -3.1813  -24.1699   24.8824 H   0  0  0  0  0  0
   -0.3472  -19.7139   29.1213 H   0  0  0  0  0  0
   -0.7355  -17.3728   28.7987 H   0  0  0  0  0  0
  1  2  2  0  0  0
  2  3  1  0  0  0
  2 16  1  0  0  0
  3 15  1  0  0  0
  3  4  2  0  0  0
  4  5  1  0  0  0
  4 35  1  0  0  0
  5  6  2  0  0  0
  5 36  1  0  0  0
  6  7  1  0  0  0
  6 14  1  0  0  0
  7  8  1  0  0  0
  7 12  1  0  0  0
  8  9  1  0  0  0
  8 37  1  0  0  0
  8 38  1  0  0  0
  9 10  1  0  0  0
  9 39  1  0  0  0
  9 40  1  0  0  0
 10 11  1  0  0  0
 11 41  1  0  0  0
 11 42  1  0  0  0
 11 43  1  0  0  0
 12 13  2  0  0  0
 12 44  1  0  0  0
 13 14  1  0  0  0
 13 45  1  0  0  0
 14 15  2  0  0  0
 15 46  1  0  0  0
 16 17  1  0  0  0
 16 47  1  0  0  0
 17 18  1  0  0  0
 17 48  1  0  0  0
 17 49  1  0  0  0
 18 34  1  0  0  0
 18 19  2  0  0  0
 19 20  1  0  0  0
 19 24  1  0  0  0
 20 21  1  0  0  0
 20 22  1  0  0  0
 20 23  1  0  0  0
 24 25  2  0  0  0
 24 50  1  0  0  0
 25 26  1  0  0  0
 25 33  1  0  0  0
 26 27  1  0  0  0
 27 28  1  0  0  0
 27 31  2  0  0  0
 27 32  2  0  0  0
 28 30  1  0  0  0
 28 29  1  0  0  0
 28 51  1  0  0  0
 29 30  1  0  0  0
 29 52  1  0  0  0
 29 53  1  0  0  0
 30 54  1  0  0  0
 30 55  1  0  0  0
 33 34  2  0  0  0
 33 56  1  0  0  0
 34 57  1  0  0  0
M  CHG  1  26  -1
M  END
> <s_m_entry_id>
104

> <s_m_entry_name>
sEH_lig_11i.1

> <s_m_Source_Path>
C:\Users\yujiethinkpad\Desktop\selection\selection\sEH_pose

> <s_m_Source_File>
sEH_lig_11i.sdf

> <i_m_Source_File_Index>
1

> <i_lp_mmshare_version>
51139

> <i_f3d_flags>
0

> <s_epik_input>
W0NIM11PW0NIMl1bQ0gyXW4xW2NIXVtjSF1jKGMxMilbY0hdYyhbY0hdW2NIXTIpQyg9TylbTkhdW0NIMl1jM2MoQyhGKShGKUYpW2NIXWMoW2NIXVtjSF0zKVtOSF1TKD1PKSg9TylbQ0hdNFtDSDJdW0NIMl00

> <s_epik_cmdline>
J2VwaWtfcHl0aG9uJywgJy1waHQnLCAnMi4wJywgJy1waCcsICc3LjAnLCAnLXRuJywgJzgnLCAnLW1hJywgJzIwMCcsICctaW1hZScsICc8aW5maWxlLm1hZT4nLCAnLW9tYWUnLCAnPG91dGZpbGUubWFlPic=

> <r_epik_Ionization_Penalty>
  1.2618

> <r_epik_Ionization_Penalty_Charging>
  1.2618

> <r_epik_Ionization_Penalty_Neutral>
  0.0000

> <r_epik_State_Penalty>
  1.3325

> <r_epik_Charging_Adjusted_Penalty>
2.59425

> <i_epik_Tot_Q>
-1

> <i_epik_Tot_abs_Q>
1

> <s_lp_Force_Field>
OPLS3e

> <r_lp_Energy>
47.99

> <b_lp_Chiralities_Consistent>
1

> <s_lp_Variant>
/home/yujie/leadopt/data/result/selection/sEH/lig_11i.sdf:1-2

> <s_i_glide_gridfile>
glide-grid_sEH

> <i_i_glide_lignum>
47

> <i_i_glide_rotatable_bonds>
11

> <r_i_docking_score>
-10.5783552941316

> <r_i_glide_ligand_efficiency>
-0.311128096886225

> <r_i_glide_ligand_efficiency_sa>
-1.00793425319684

> <r_i_glide_ligand_efficiency_ln>
-2.33705539728935

> <r_i_glide_gscore>
-11.9108552941316

> <r_i_glide_lipo>
-4.83519344095442

> <r_i_glide_hbond>
-0.72

> <r_i_glide_metal>
0

> <r_i_glide_rewards>
-2.51238984212204

> <r_i_glide_evdw>
-52.1874656677246

> <r_i_glide_ecoul>
-11.8928527832031

> <r_i_glide_erotb>
0.750029189811522

> <r_i_glide_esite>
-0.2

> <r_i_glide_emodel>
-103.279346215166

> <r_i_glide_energy>
-64.0803184509277

> <r_i_glide_einternal>
3.51844930648804

> <i_i_glide_confnum>
251

> <i_i_glide_posenum>
169

> <r_i_glide_eff_state_penalty>
1.3325

> <s_m_job_name>
glide-dock_SP_all

> <r_glide_shape_similarity>
0.849998116493225

> <s_m_subgroup_title>
glide-dock_SP_all_pv1

> <s_m_subgroupid>
glide-dock_SP_all_pv1

> <b_m_subgroup_collapsed>
0

$$$$
