@<TRIPOS>MOLECULE
20669(2qbr)
42   44    1
SMALL
USER_CHARGES


@<TRIPOS>ATOM
      1 O1         39.2345   17.6631   12.7846 O.co2     1 UNK         0.0000 
      2 C2         40.3521   17.1021   12.7361 C.2       1 UNK         0.0000 
      3 O3         41.1778   17.2187   11.8038 O.co2     1 UNK         0.0000 
      4 C4         40.7693   16.2193   13.9145 C.3       1 UNK         0.0000 
      5 O5         42.0927   15.7293   13.7433 O.3       1 UNK         0.0000 
      6 C6         42.5145   14.9212   14.7395 C.2       1 UNK         0.0000 
      7 C7         42.1856   13.5746   14.8668 C.2       1 UNK         0.0000 
      8 Br8        41.2068   12.6501   13.5170 Br        1 UNK         0.0000 
      9 C9         42.6245   12.9340   16.0147 C.2       1 UNK         0.0000 
     10 C10        42.3443   11.5877   16.4784 C.ar      1 UNK         0.0000 
     11 C11        43.3652   10.7569   16.9470 C.ar      1 UNK         0.0000 
     12 C12        43.0859    9.4573   17.3660 C.ar      1 UNK         0.0000 
     13 C13        41.7792    8.9724   17.3118 C.ar      1 UNK         0.0000 
     14 C14        40.7401    9.7888   16.8448 C.ar      1 UNK         0.0000 
     15 N15        39.3981    9.3768   16.7741 N.pl3     1 UNK         0.0000 
     16 C16        38.9977    7.9742   16.7120 C.3       1 UNK         0.0000 
     17 C17        39.0447    7.4076   15.2989 C.ar      1 UNK         0.0000 
     18 C18        40.2643    7.0598   14.7072 C.ar      1 UNK         0.0000 
     19 C19        40.2940    6.5235   13.4197 C.ar      1 UNK         0.0000 
     20 C20        39.1061    6.3134   12.7236 C.ar      1 UNK         0.0000 
     21 C21        37.8875    6.6562   13.3069 C.ar      1 UNK         0.0000 
     22 C22        37.8553    7.2050   14.5894 C.ar      1 UNK         0.0000 
     23 C23        41.0347   11.0942   16.4477 C.ar      1 UNK         0.0000 
     24 S24        43.6360   14.0254   16.9149 S.3       1 UNK         0.0000 
     25 C25        43.3652   15.3253   15.7666 C.2       1 UNK         0.0000 
     26 C26        44.0487   16.6108   16.0384 C.2       1 UNK         0.0000 
     27 O27        43.8748   17.5611   15.2449 O.co2     1 UNK         0.0000 
     28 O28        44.7784   16.7153   17.0499 O.co2     1 UNK         0.0000 
     29 H29        40.7112   16.7969   14.8381 H         1 UNK         0.0000 
     30 H30        40.0553   15.3978   13.9950 H         1 UNK         0.0000 
     31 H31        44.3838   11.1152   16.9827 H         1 UNK         0.0000 
     32 H32        43.8828    8.8262   17.7310 H         1 UNK         0.0000 
     33 H33        41.5909    7.9603   17.6367 H         1 UNK         0.0000 
     34 H34        38.6574   10.0626   16.8096 H         1 UNK         0.0000 
     35 H35        39.6610    7.3813   17.3429 H         1 UNK         0.0000 
     36 H36        37.9898    7.8713   17.1160 H         1 UNK         0.0000 
     37 H37        41.1892    7.2050   15.2463 H         1 UNK         0.0000 
     38 H38        41.2390    6.2704   12.9621 H         1 UNK         0.0000 
     39 H39        39.1291    5.8845   11.7326 H         1 UNK         0.0000 
     40 H40        36.9665    6.4969   12.7658 H         1 UNK         0.0000 
     41 H41        36.9062    7.4739   15.0296 H         1 UNK         0.0000 
     42 H42        40.2333   11.7381   16.1154 H         1 UNK         0.0000 
@<TRIPOS>BOND
     1    1    2 2    
     2    2    3 1    
     3    2    4 1    
     4    4    5 1    
     5    4   29 1    
     6    4   30 1    
     7    5    6 1    
     8    6   25 2    
     9    6    7 1    
    10    7    8 1    
    11    7    9 2    
    12    9   10 1    
    13    9   24 1    
    14   10   23 ar   
    15   10   11 ar   
    16   11   12 ar   
    17   11   31 1    
    18   12   13 ar   
    19   12   32 1    
    20   13   14 ar   
    21   13   33 1    
    22   14   15 1    
    23   14   23 ar   
    24   15   16 1    
    25   15   34 1    
    26   16   17 1    
    27   16   35 1    
    28   16   36 1    
    29   17   22 ar   
    30   17   18 ar   
    31   18   19 ar   
    32   18   37 1    
    33   19   20 ar   
    34   19   38 1    
    35   20   21 ar   
    36   20   39 1    
    37   21   22 ar   
    38   21   40 1    
    39   22   41 1    
    40   23   42 1    
    41   24   25 1    
    42   25   26 1    
    43   26   27 2    
    44   26   28 1    
@<TRIPOS>SUBSTRUCTURE
     1 UNK         1 GROUP             0       ****    0 ROOT    
