@<TRIPOS>MOLECULE
20670(2qbs)
45   47    1
SMALL
USER_CHARGES


@<TRIPOS>ATOM
      1 O1         41.1639   17.7415   12.1780 O.co2     1 UNK         0.0000 
      2 C2         40.3722   17.6063   13.1368 C.2       1 UNK         0.0000 
      3 O3         39.3254   18.2679   13.3145 O.co2     1 UNK         0.0000 
      4 C4         40.7175   16.5469   14.1863 C.3       1 UNK         0.0000 
      5 O5         41.9134   15.8492   13.8454 O.3       1 UNK         0.0000 
      6 C6         42.3248   14.9326   14.7526 C.2       1 UNK         0.0000 
      7 C7         41.8775   13.6145   14.7795 C.2       1 UNK         0.0000 
      8 Br8        40.6644   12.9348   13.4743 Br        1 UNK         0.0000 
      9 C9         42.3473   12.8247   15.8292 C.2       1 UNK         0.0000 
     10 C10        42.0577   11.4350   16.1601 C.ar      1 UNK         0.0000 
     11 C11        43.0417   10.5800   16.6715 C.ar      1 UNK         0.0000 
     12 C12        42.7506    9.2417   16.9424 C.ar      1 UNK         0.0000 
     13 C13        41.4815    8.7321   16.6725 C.ar      1 UNK         0.0000 
     14 C14        40.4829    9.5699   16.1594 C.ar      1 UNK         0.0000 
     15 N15        39.1835    9.1385   15.8446 N.pl3     1 UNK         0.0000 
     16 C16        38.9114    7.7621   15.4291 C.3       1 UNK         0.0000 
     17 C17        39.6099    7.4194   14.0884 C.3       1 UNK         0.0000 
     18 C18        39.2402    6.0199   13.5606 C.3       1 UNK         0.0000 
     19 C19        37.7153    5.8364   13.4582 C.3       1 UNK         0.0000 
     20 C20        37.0173    6.1412   14.7978 C.3       1 UNK         0.0000 
     21 C21        37.3829    7.5402   15.3340 C.3       1 UNK         0.0000 
     22 C22        40.7764   10.9164   15.9496 C.ar      1 UNK         0.0000 
     23 S23        43.4366   13.7822   16.8006 S.3       1 UNK         0.0000 
     24 C24        43.2082   15.1991   15.7938 C.2       1 UNK         0.0000 
     25 C25        43.9470   16.4235   16.1845 C.2       1 UNK         0.0000 
     26 O26        44.6954   16.3793   17.1852 O.co2     1 UNK         0.0000 
     27 O27        43.8111   17.4654   15.5045 O.co2     1 UNK         0.0000 
     28 H28        39.9034   15.8237   14.2410 H         1 UNK         0.0000 
     29 H29        40.7838   17.0107   15.1721 H         1 UNK         0.0000 
     30 H30        44.0372   10.9517   16.8661 H         1 UNK         0.0000 
     31 H31        43.5096    8.5994   17.3640 H         1 UNK         0.0000 
     32 H32        41.2784    7.6884   16.8636 H         1 UNK         0.0000 
     33 H33        38.4190    9.7958   15.9008 H         1 UNK         0.0000 
     34 H34        39.3330    7.1201   16.2024 H         1 UNK         0.0000 
     35 H35        39.3536    8.1638   13.3345 H         1 UNK         0.0000 
     36 H36        40.6913    7.4722   14.2150 H         1 UNK         0.0000 
     37 H37        39.6904    5.8679   12.5796 H         1 UNK         0.0000 
     38 H38        39.6604    5.2538   14.2121 H         1 UNK         0.0000 
     39 H39        37.3186    6.4933   12.6841 H         1 UNK         0.0000 
     40 H40        37.4834    4.8187   13.1442 H         1 UNK         0.0000 
     41 H41        35.9367    6.0761   14.6707 H         1 UNK         0.0000 
     42 H42        37.2845    5.3857   15.5367 H         1 UNK         0.0000 
     43 H43        36.9252    7.6795   16.3134 H         1 UNK         0.0000 
     44 H44        36.9434    8.2942   14.6809 H         1 UNK         0.0000 
     45 H45        40.0054   11.5887   15.6068 H         1 UNK         0.0000 
@<TRIPOS>BOND
     1    1    2 2    
     2    2    3 1    
     3    2    4 1    
     4    4    5 1    
     5    4   28 1    
     6    4   29 1    
     7    5    6 1    
     8    6   24 2    
     9    6    7 1    
    10    7    8 1    
    11    7    9 2    
    12    9   10 1    
    13    9   23 1    
    14   10   22 ar   
    15   10   11 ar   
    16   11   12 ar   
    17   11   30 1    
    18   12   13 ar   
    19   12   31 1    
    20   13   14 ar   
    21   13   32 1    
    22   14   15 1    
    23   14   22 ar   
    24   15   16 1    
    25   15   33 1    
    26   16   21 1    
    27   16   17 1    
    28   16   34 1    
    29   17   18 1    
    30   17   35 1    
    31   17   36 1    
    32   18   19 1    
    33   18   37 1    
    34   18   38 1    
    35   19   20 1    
    36   19   39 1    
    37   19   40 1    
    38   20   21 1    
    39   20   41 1    
    40   20   42 1    
    41   21   43 1    
    42   21   44 1    
    43   22   45 1    
    44   23   24 1    
    45   24   25 1    
    46   25   26 2    
    47   25   27 1    
@<TRIPOS>SUBSTRUCTURE
     1 UNK         1 GROUP             0       ****    0 ROOT    
