@<TRIPOS>MOLECULE
23330(2qbq)
57   59    1
SMALL
USER_CHARGES


@<TRIPOS>ATOM
      1 S1         43.3233   13.7400   16.9527 S.3       1 UNK         0.0000 
      2 C2         43.2030   15.1929   15.9762 C.2       1 UNK         0.0000 
      3 C3         42.4447   14.9739   14.8477 C.2       1 UNK         0.0000 
      4 C4         41.9770   13.6283   14.7765 C.2       1 UNK         0.0000 
      5 C5         42.3482   12.8303   15.8279 C.2       1 UNK         0.0000 
      6 C6         43.9057   16.4430   16.4763 C.2       1 UNK         0.0000 
      7 O7         44.5237   16.3493   17.5596 O.co2     1 UNK         0.0000 
      8 O8         43.7737   17.4605   15.7592 O.co2     1 UNK         0.0000 
      9 C9         42.0535   11.4291   16.1130 C.ar      1 UNK         0.0000 
     10 C10        40.7754   10.8941   15.8359 C.ar      1 UNK         0.0000 
     11 C11        40.4853    9.5424   16.1107 C.ar      1 UNK         0.0000 
     12 C12        41.4762    8.7108   16.6670 C.ar      1 UNK         0.0000 
     13 C13        42.7530    9.2326   16.9457 C.ar      1 UNK         0.0000 
     14 C14        43.0383   10.5835   16.6694 C.ar      1 UNK         0.0000 
     15 Br15       40.9483   13.0395   13.2971 Br        1 UNK         0.0000 
     16 O16        42.2170   15.8802   13.8703 O.3       1 UNK         0.0000 
     17 C17        41.2561   16.8862   14.1750 C.3       1 UNK         0.0000 
     18 C18        40.9764   17.7598   12.9456 C.2       1 UNK         0.0000 
     19 O19        40.0382   17.4490   12.1783 O.co2     1 UNK         0.0000 
     20 O20        41.7122   18.7575   12.7906 O.co2     1 UNK         0.0000 
     21 N21        39.1897    9.0765   15.8167 N.pl3     1 UNK         0.0000 
     22 C22        38.9258    7.6726   15.5737 C.3       1 UNK         0.0000 
     23 C23        37.4107    7.4354   15.4606 C.3       1 UNK         0.0000 
     24 C24        37.0992    5.9646   15.1380 C.3       1 UNK         0.0000 
     25 C25        37.8320    5.5053   13.8665 C.3       1 UNK         0.0000 
     26 C26        39.3470    5.7425   13.9797 C.3       1 UNK         0.0000 
     27 C27        39.6585    7.2133   14.3023 C.3       1 UNK         0.0000 
     28 C28        35.5944    5.7760   14.9686 C.3       1 UNK         0.0000 
     29 C29        37.5116    5.0835   16.3137 C.3       1 UNK         0.0000 
     30 C30        40.0361    5.3373   12.6798 C.3       1 UNK         0.0000 
     31 C31        39.9263    4.8450   15.0695 C.3       1 UNK         0.0000 
     32 H32        40.0223   11.5284   15.3918 H         1 UNK         0.0000 
     33 H33        41.2785    7.6723   16.8842 H         1 UNK         0.0000 
     34 H34        43.5204    8.5921   17.3560 H         1 UNK         0.0000 
     35 H35        44.0255   10.9664   16.8787 H         1 UNK         0.0000 
     36 H36        40.3174   16.4390   14.5068 H         1 UNK         0.0000 
     37 H37        41.6234   17.5201   14.9838 H         1 UNK         0.0000 
     38 H38        38.6249    9.7034   15.2558 H         1 UNK         0.0000 
     39 H39        39.3172    7.1339   16.4367 H         1 UNK         0.0000 
     40 H40        36.9186    7.7249   16.3890 H         1 UNK         0.0000 
     41 H41        36.9969    8.0765   14.6822 H         1 UNK         0.0000 
     42 H42        37.6335    4.4493   13.6837 H         1 UNK         0.0000 
     43 H43        37.4405    6.0440   13.0036 H         1 UNK         0.0000 
     44 H44        39.3640    7.8427   13.4625 H         1 UNK         0.0000 
     45 H45        40.7334    7.3480   14.4233 H         1 UNK         0.0000 
     46 H46        35.3442    4.7449   14.7157 H         1 UNK         0.0000 
     47 H47        35.0533    6.0262   15.8811 H         1 UNK         0.0000 
     48 H48        35.1963    6.4082   14.1751 H         1 UNK         0.0000 
     49 H49        37.4373    4.0237   16.0675 H         1 UNK         0.0000 
     50 H50        38.5225    5.2716   16.6604 H         1 UNK         0.0000 
     51 H51        36.8724    5.2577   17.1806 H         1 UNK         0.0000 
     52 H52        41.1045    5.5542   12.7107 H         1 UNK         0.0000 
     53 H53        39.9233    4.2707   12.4802 H         1 UNK         0.0000 
     54 H54        39.6277    5.8674   11.8225 H         1 UNK         0.0000 
     55 H55        41.0117    4.8712   15.0469 H         1 UNK         0.0000 
     56 H56        39.6557    5.1477   16.0756 H         1 UNK         0.0000 
     57 H57        39.6249    3.8045   14.9423 H         1 UNK         0.0000 
@<TRIPOS>BOND
     1    1    2 1    
     2    1    5 1    
     3    2    3 2    
     4    2    6 1    
     5    3    4 1    
     6    3   16 1    
     7    4    5 2    
     8    4   15 1    
     9    5    9 1    
    10    6    7 2    
    11    6    8 1    
    12    9   10 ar   
    13    9   14 ar   
    14   10   11 ar   
    15   10   32 1    
    16   11   12 ar   
    17   11   21 1    
    18   12   13 ar   
    19   12   33 1    
    20   13   14 ar   
    21   13   34 1    
    22   14   35 1    
    23   16   17 1    
    24   17   18 1    
    25   17   36 1    
    26   17   37 1    
    27   18   19 2    
    28   18   20 1    
    29   21   22 1    
    30   21   38 1    
    31   22   23 1    
    32   22   27 1    
    33   22   39 1    
    34   23   24 1    
    35   23   40 1    
    36   23   41 1    
    37   24   25 1    
    38   24   28 1    
    39   24   29 1    
    40   25   26 1    
    41   25   42 1    
    42   25   43 1    
    43   26   27 1    
    44   26   30 1    
    45   26   31 1    
    46   27   44 1    
    47   27   45 1    
    48   28   46 1    
    49   28   47 1    
    50   28   48 1    
    51   29   49 1    
    52   29   50 1    
    53   29   51 1    
    54   30   52 1    
    55   30   53 1    
    56   30   54 1    
    57   31   55 1    
    58   31   56 1    
    59   31   57 1    
@<TRIPOS>SUBSTRUCTURE
     1 UNK         1 GROUP             0       ****    0 ROOT    
