@<TRIPOS>MOLECULE
23470
42   43    1
SMALL
USER_CHARGES


@<TRIPOS>ATOM
      1 C1         37.0574    6.0201   15.5715 C.3       1 UNK         0.0000 
      2 C2         36.6613    6.9917   16.6944 C.3       1 UNK         0.0000 
      3 C3         36.7264    6.3206   18.0727 C.3       1 UNK         0.0000 
      4 N4         37.5298    8.1657   16.6845 N.am      1 UNK         0.0000 
      5 C5         38.8613    8.1465   16.8451 C.2       1 UNK         0.0000 
      6 O6         39.5077    7.1124   17.0110 O.2       1 UNK         0.0000 
      7 N7         39.3777    9.3863   16.7836 N.am      1 UNK         0.0000 
      8 C8         40.7401    9.7888   16.8448 C.ar      1 UNK         0.0000 
      9 C9         41.7792    8.9724   17.3118 C.ar      1 UNK         0.0000 
     10 C10        43.0859    9.4573   17.3660 C.ar      1 UNK         0.0000 
     11 C11        43.3652   10.7569   16.9470 C.ar      1 UNK         0.0000 
     12 C12        42.3443   11.5877   16.4784 C.ar      1 UNK         0.0000 
     13 C13        42.6245   12.9340   16.0147 C.2       1 UNK         0.0000 
     14 S14        43.6360   14.0254   16.9149 S.3       1 UNK         0.0000 
     15 C15        43.3652   15.3253   15.7666 C.2       1 UNK         0.0000 
     16 C16        44.0434   16.6123   16.0511 C.2       1 UNK         0.0000 
     17 O17        44.7708   16.6963   17.0648 O.co2     1 UNK         0.0000 
     18 O18        43.8790   17.5779   15.2720 O.co2     1 UNK         0.0000 
     19 C19        42.5145   14.9212   14.7395 C.2       1 UNK         0.0000 
     20 O20        42.0386   15.7416   13.7736 O.3       1 UNK         0.0000 
     21 C21        40.7906   16.3656   14.0670 C.3       1 UNK         0.0000 
     22 C22        40.3516   17.2925   12.9309 C.2       1 UNK         0.0000 
     23 O23        41.1068   17.3767   11.9372 O.co2     1 UNK         0.0000 
     24 O24        39.2649   17.8954   13.0716 O.co2     1 UNK         0.0000 
     25 C25        42.1856   13.5746   14.8668 C.2       1 UNK         0.0000 
     26 Br26       41.1521   12.7037   13.5216 Br        1 UNK         0.0000 
     27 C27        41.0347   11.0942   16.4477 C.ar      1 UNK         0.0000 
     28 H28        36.9735    6.4916   14.5918 H         1 UNK         0.0000 
     29 H29        38.0852    5.6749   15.6884 H         1 UNK         0.0000 
     30 H30        36.4104    5.1425   15.5677 H         1 UNK         0.0000 
     31 H31        35.6305    7.3110   16.5295 H         1 UNK         0.0000 
     32 H32        36.4222    7.0102   18.8608 H         1 UNK         0.0000 
     33 H33        36.0625    5.4568   18.1188 H         1 UNK         0.0000 
     34 H34        37.7356    5.9760   18.3013 H         1 UNK         0.0000 
     35 H35        37.0794    9.0573   16.5417 H         1 UNK         0.0000 
     36 H36        38.7197   10.1329   16.6175 H         1 UNK         0.0000 
     37 H37        41.5991    7.9639   17.6500 H         1 UNK         0.0000 
     38 H38        43.8791    8.8263   17.7392 H         1 UNK         0.0000 
     39 H39        44.3805   11.1222   16.9988 H         1 UNK         0.0000 
     40 H40        40.0404   15.5854   14.1974 H         1 UNK         0.0000 
     41 H41        40.8239   16.9207   15.0061 H         1 UNK         0.0000 
     42 H42        40.2377   11.7353   16.0992 H         1 UNK         0.0000 
@<TRIPOS>BOND
     1    1    2 1    
     2    1   28 1    
     3    1   29 1    
     4    1   30 1    
     5    2    3 1    
     6    2    4 1    
     7    2   31 1    
     8    3   32 1    
     9    3   33 1    
    10    3   34 1    
    11    4    5 am   BACKBONE|DICT|INTERRES
    12    4   35 1    
    13    5    6 2    
    14    5    7 am   BACKBONE|DICT|INTERRES
    15    7    8 1    
    16    7   36 1    
    17    8   27 ar   
    18    8    9 ar   
    19    9   10 ar   
    20    9   37 1    
    21   10   11 ar   
    22   10   38 1    
    23   11   12 ar   
    24   11   39 1    
    25   12   13 1    
    26   12   27 ar   
    27   13   25 2    
    28   13   14 1    
    29   14   15 1    
    30   15   16 1    
    31   15   19 2    
    32   16   17 2    
    33   16   18 1    
    34   19   20 1    
    35   19   25 1    
    36   20   21 1    
    37   21   22 1    
    38   21   40 1    
    39   21   41 1    
    40   22   23 2    
    41   22   24 1    
    42   25   26 1    
    43   27   42 1    
@<TRIPOS>SUBSTRUCTURE
     1 UNK         1 GROUP             0       ****    0 ROOT    
