@<TRIPOS>MOLECULE
23472
42   44    1
SMALL
USER_CHARGES


@<TRIPOS>ATOM
      1 O1         41.3359   17.7345   12.0655 O.co2     1 UNK         0.0000 
      2 C2         40.5033   17.5778   12.9865 C.2       1 UNK         0.0000 
      3 O3         39.4360   18.2181   13.1106 O.co2     1 UNK         0.0000 
      4 C4         40.8111   16.5423   14.0704 C.3       1 UNK         0.0000 
      5 O5         42.0187   15.8482   13.7866 O.3       1 UNK         0.0000 
      6 C6         42.3640   14.9373   14.7216 C.2       1 UNK         0.0000 
      7 C7         41.8832   13.5947   14.7447 C.2       1 UNK         0.0000 
      8 Br8        40.6955   12.9322   13.4088 Br        1 UNK         0.0000 
      9 C9         42.3216   12.8413   15.8032 C.2       1 UNK         0.0000 
     10 C10        42.0378   11.4574   16.1718 C.ar      1 UNK         0.0000 
     11 C11        43.0880   10.5560   16.4532 C.ar      1 UNK         0.0000 
     12 C12        42.8137    9.2218   16.8103 C.ar      1 UNK         0.0000 
     13 C13        41.4823    8.7730   16.8894 C.ar      1 UNK         0.0000 
     14 C14        40.4256    9.6609   16.6100 C.ar      1 UNK         0.0000 
     15 N15        39.0856    9.2639   16.6793 N.pl3     1 UNK         0.0000 
     16 S16        38.4178    7.6851   16.9540 S.o2      1 UNK         0.0000 
     17 O17        39.0080    7.1971   18.2103 O.2       1 UNK         0.0000 
     18 O18        36.9627    7.8421   16.8089 O.2       1 UNK         0.0000 
     19 C19        39.0362    6.7270   15.5748 C.ar      1 UNK         0.0000 
     20 C20        38.2852    6.6759   14.3838 C.ar      1 UNK         0.0000 
     21 C21        38.7667    5.9320   13.2887 C.ar      1 UNK         0.0000 
     22 C22        39.9924    5.2434   13.3877 C.ar      1 UNK         0.0000 
     23 F23        40.4534    4.5292   12.3340 F         1 UNK         0.0000 
     24 C24        40.7391    5.2967   14.5820 C.ar      1 UNK         0.0000 
     25 C25        40.2622    6.0390   15.6804 C.ar      1 UNK         0.0000 
     26 C26        40.7049   10.9955   16.2530 C.ar      1 UNK         0.0000 
     27 S27        43.3793   13.7909   16.8146 S.3       1 UNK         0.0000 
     28 C28        43.2010   15.1994   15.7834 C.2       1 UNK         0.0000 
     29 C29        43.9423   16.4178   16.1828 C.2       1 UNK         0.0000 
     30 O30        43.8332   17.4437   15.4767 O.co2     1 UNK         0.0000 
     31 O31        44.6565   16.3915   17.2103 O.co2     1 UNK         0.0000 
     32 H32        40.8732   17.0602   15.0292 H         1 UNK         0.0000 
     33 H33        39.9877   15.8296   14.1346 H         1 UNK         0.0000 
     34 H34        44.1148   10.8877   16.4045 H         1 UNK         0.0000 
     35 H35        43.6260    8.5439   17.0270 H         1 UNK         0.0000 
     36 H36        41.2937    7.7490   17.1714 H         1 UNK         0.0000 
     37 H37        38.4177    9.9669   16.3987 H         1 UNK         0.0000 
     38 H38        37.3473    7.2064   14.3086 H         1 UNK         0.0000 
     39 H39        38.1969    5.8898   12.3721 H         1 UNK         0.0000 
     40 H40        41.6780    4.7680   14.6546 H         1 UNK         0.0000 
     41 H41        40.8379    6.0779   16.5932 H         1 UNK         0.0000 
     42 H42        39.8926   11.6719   16.0292 H         1 UNK         0.0000 
@<TRIPOS>BOND
     1    1    2 2    
     2    2    3 1    
     3    2    4 1    
     4    4    5 1    
     5    4   32 1    
     6    4   33 1    
     7    5    6 1    
     8    6   28 2    
     9    6    7 1    
    10    7    8 1    
    11    7    9 2    
    12    9   10 1    
    13    9   27 1    
    14   10   26 ar   
    15   10   11 ar   
    16   11   12 ar   
    17   11   34 1    
    18   12   13 ar   
    19   12   35 1    
    20   13   14 ar   
    21   13   36 1    
    22   14   15 1    
    23   14   26 ar   
    24   15   16 1    
    25   15   37 1    
    26   16   17 2    
    27   16   18 2    
    28   16   19 1    
    29   19   25 ar   
    30   19   20 ar   
    31   20   21 ar   
    32   20   38 1    
    33   21   22 ar   
    34   21   39 1    
    35   22   23 1    
    36   22   24 ar   
    37   24   25 ar   
    38   24   40 1    
    39   25   41 1    
    40   26   42 1    
    41   27   28 1    
    42   28   29 1    
    43   29   30 2    
    44   29   31 1    
@<TRIPOS>SUBSTRUCTURE
     1 UNK         1 GROUP             0       ****    0 ROOT    
