@<TRIPOS>MOLECULE
23475
42   44    1
SMALL
USER_CHARGES


@<TRIPOS>ATOM
      1 O1         41.4191   17.6003   11.9575 O.co2     1 UNK         0.0000 
      2 C2         40.5356   17.4939   12.8367 C.2       1 UNK         0.0000 
      3 O3         39.4594   18.1303   12.8671 O.co2     1 UNK         0.0000 
      4 C4         40.7983   16.5073   13.9770 C.3       1 UNK         0.0000 
      5 O5         42.0652   15.8703   13.8290 O.3       1 UNK         0.0000 
      6 C6         42.3682   14.9604   14.7843 C.2       1 UNK         0.0000 
      7 C7         41.8945   13.6150   14.7768 C.2       1 UNK         0.0000 
      8 Br8        40.7639   12.9503   13.3926 Br        1 UNK         0.0000 
      9 C9         42.3354   12.8406   15.8190 C.2       1 UNK         0.0000 
     10 C10        42.0585   11.4474   16.1564 C.ar      1 UNK         0.0000 
     11 C11        43.0853   10.6026   16.6322 C.ar      1 UNK         0.0000 
     12 C12        42.8174    9.2595   16.9591 C.ar      1 UNK         0.0000 
     13 C13        41.5160    8.7447   16.8124 C.ar      1 UNK         0.0000 
     14 C14        40.4830    9.5756   16.3374 C.ar      1 UNK         0.0000 
     15 N15        39.1988    9.0234   16.2104 N.pl3     1 UNK         0.0000 
     16 C16        38.9954    7.6289   15.8731 C.3       1 UNK         0.0000 
     17 C17        39.1357    7.3709   14.3719 C.3       1 UNK         0.0000 
     18 C18        38.2665    6.1411   14.1220 C.3       1 UNK         0.0000 
     19 C19        37.0665    6.3370   15.0501 C.3       1 UNK         0.0000 
     20 C20        37.5932    7.1312   16.2550 C.3       1 UNK         0.0000 
     21 C21        40.7558   10.9195   16.0117 C.ar      1 UNK         0.0000 
     22 S22        43.3865   13.7731   16.8529 S.3       1 UNK         0.0000 
     23 C23        43.2022   15.2033   15.8529 C.2       1 UNK         0.0000 
     24 C24        43.9483   16.4111   16.2795 C.2       1 UNK         0.0000 
     25 O25        44.6544   16.3479   17.3096 O.co2     1 UNK         0.0000 
     26 O26        43.8504   17.4622   15.6071 O.co2     1 UNK         0.0000 
     27 H27        39.9832   15.7838   14.0366 H         1 UNK         0.0000 
     28 H28        40.7969   17.0507   14.9222 H         1 UNK         0.0000 
     29 H29        44.0910   10.9807   16.7453 H         1 UNK         0.0000 
     30 H30        43.6120    8.6235   17.3205 H         1 UNK         0.0000 
     31 H31        41.3230    7.7123   17.0655 H         1 UNK         0.0000 
     32 H32        38.4086    9.5436   16.5632 H         1 UNK         0.0000 
     33 H33        39.7460    7.0528   16.4141 H         1 UNK         0.0000 
     34 H34        38.8366    8.2279   13.7684 H         1 UNK         0.0000 
     35 H35        40.1741    7.1434   14.1309 H         1 UNK         0.0000 
     36 H36        37.9338    6.1297   13.0841 H         1 UNK         0.0000 
     37 H37        38.7950    5.2065   14.3099 H         1 UNK         0.0000 
     38 H38        36.3000    6.9185   14.5378 H         1 UNK         0.0000 
     39 H39        36.6125    5.3899   15.3419 H         1 UNK         0.0000 
     40 H40        37.6410    6.5071   17.1474 H         1 UNK         0.0000 
     41 H41        36.9279    7.9643   16.4817 H         1 UNK         0.0000 
     42 H42        39.9765   11.5733   15.6517 H         1 UNK         0.0000 
@<TRIPOS>BOND
     1    1    2 2    
     2    2    3 1    
     3    2    4 1    
     4    4    5 1    
     5    4   27 1    
     6    4   28 1    
     7    5    6 1    
     8    6   23 2    
     9    6    7 1    
    10    7    8 1    
    11    7    9 2    
    12    9   10 1    
    13    9   22 1    
    14   10   21 ar   
    15   10   11 ar   
    16   11   12 ar   
    17   11   29 1    
    18   12   13 ar   
    19   12   30 1    
    20   13   14 ar   
    21   13   31 1    
    22   14   15 1    
    23   14   21 ar   
    24   15   16 1    
    25   15   32 1    
    26   16   20 1    
    27   16   17 1    
    28   16   33 1    
    29   17   18 1    
    30   17   34 1    
    31   17   35 1    
    32   18   19 1    
    33   18   36 1    
    34   18   37 1    
    35   19   20 1    
    36   19   38 1    
    37   19   39 1    
    38   20   40 1    
    39   20   41 1    
    40   21   42 1    
    41   22   23 1    
    42   23   24 1    
    43   24   25 2    
    44   24   26 1    
@<TRIPOS>SUBSTRUCTURE
     1 UNK         1 GROUP             0       ****    0 ROOT    
