@<TRIPOS>MOLECULE
23483
57   60    1
SMALL
USER_CHARGES


@<TRIPOS>ATOM
      1 O1         41.5076   17.6533   11.6485 O.co2     1 UNK         0.0000 
      2 C2         40.5987   17.4811   12.4903 C.2       1 UNK         0.0000 
      3 O3         39.4797   18.0394   12.4716 O.co2     1 UNK         0.0000 
      4 C4         40.8849   16.5382   13.6616 C.3       1 UNK         0.0000 
      5 O5         42.1831   15.9568   13.5607 O.3       1 UNK         0.0000 
      6 C6         42.5067   15.0961   14.5535 C.2       1 UNK         0.0000 
      7 C7         42.1050   13.7638   14.6029 C.2       1 UNK         0.0000 
      8 Br8        41.1305   12.9484   13.1815 Br        1 UNK         0.0000 
      9 C9         42.4736   13.0428   15.7309 C.2       1 UNK         0.0000 
     10 C10        42.1345   11.6814   16.1187 C.ar      1 UNK         0.0000 
     11 C11        43.0991   10.8232   16.6550 C.ar      1 UNK         0.0000 
     12 C12        42.7730    9.5138   17.0059 C.ar      1 UNK         0.0000 
     13 C13        41.4767    9.0403   16.8075 C.ar      1 UNK         0.0000 
     14 C14        40.4943    9.8795   16.2662 C.ar      1 UNK         0.0000 
     15 N15        39.1733    9.4611   16.0229 N.pl3     1 UNK         0.0000 
     16 C16        38.8803    8.0706   15.6816 C.3       1 UNK         0.0000 
     17 C17        37.3499    7.8627   15.5714 C.3       1 UNK         0.0000 
     18 C18        36.9746    6.4537   15.0726 C.3       1 UNK         0.0000 
     19 N19        37.7104    6.1236   13.8434 N.pl3     1 UNK         0.0000 
     20 S20        36.9907    5.9581   12.5378 S.o2      1 UNK         0.0000 
     21 O21        35.7144    6.6849   12.6224 O.2       1 UNK         0.0000 
     22 O22        37.9478    6.2523   11.4601 O.2       1 UNK         0.0000 
     23 C23        36.6716    4.1994   12.4996 C.ar      1 UNK         0.0000 
     24 C24        37.7586    3.3029   12.4915 C.ar      1 UNK         0.0000 
     25 C25        37.5162    1.9153   12.4802 C.ar      1 UNK         0.0000 
     26 C26        36.1926    1.4309   12.4791 C.ar      1 UNK         0.0000 
     27 C27        35.1089    2.3322   12.4905 C.ar      1 UNK         0.0000 
     28 C28        35.3462    3.7207   12.5036 C.ar      1 UNK         0.0000 
     29 C29        39.1749    6.2318   13.9220 C.3       1 UNK         0.0000 
     30 C30        39.5890    7.6410   14.3716 C.3       1 UNK         0.0000 
     31 C31        40.8302   11.1974   15.9487 C.ar      1 UNK         0.0000 
     32 S32        43.4983   14.0501   16.7177 S.3       1 UNK         0.0000 
     33 C33        43.3217   15.4163   15.6304 C.2       1 UNK         0.0000 
     34 C34        44.0454   16.6569   15.9983 C.2       1 UNK         0.0000 
     35 O35        44.7330   16.6641   17.0426 O.co2     1 UNK         0.0000 
     36 O36        43.9488   17.6647   15.2624 O.co2     1 UNK         0.0000 
     37 H37        40.0978   15.7842   13.7296 H         1 UNK         0.0000 
     38 H38        40.8414   17.1162   14.5847 H         1 UNK         0.0000 
     39 H39        44.1129   11.1673   16.7997 H         1 UNK         0.0000 
     40 H40        43.5255    8.8665   17.4316 H         1 UNK         0.0000 
     41 H41        41.2413    8.0207   17.0763 H         1 UNK         0.0000 
     42 H42        38.4390   10.1449   16.1373 H         1 UNK         0.0000 
     43 H43        39.2589    7.4686   16.5076 H         1 UNK         0.0000 
     44 H44        36.8766    8.0462   16.5360 H         1 UNK         0.0000 
     45 H45        36.9348    8.6028   14.8873 H         1 UNK         0.0000 
     46 H46        37.2043    5.6975   15.8233 H         1 UNK         0.0000 
     47 H47        35.9002    6.3859   14.9017 H         1 UNK         0.0000 
     48 H48        38.7715    3.6780   12.4933 H         1 UNK         0.0000 
     49 H49        38.3450    1.2228   12.4717 H         1 UNK         0.0000 
     50 H50        36.0080    0.3668   12.4686 H         1 UNK         0.0000 
     51 H51        34.0953    1.9593   12.4874 H         1 UNK         0.0000 
     52 H52        34.5143    4.4097   12.5081 H         1 UNK         0.0000 
     53 H53        39.5253    5.4655   14.6134 H         1 UNK         0.0000 
     54 H54        39.6129    5.9826   12.9555 H         1 UNK         0.0000 
     55 H55        39.3499    8.3541   13.5828 H         1 UNK         0.0000 
     56 H56        40.6706    7.6852   14.4991 H         1 UNK         0.0000 
     57 H57        40.0962   11.8860   15.5702 H         1 UNK         0.0000 
@<TRIPOS>BOND
     1    1    2 2    
     2    2    3 1    
     3    2    4 1    
     4    4    5 1    
     5    4   37 1    
     6    4   38 1    
     7    5    6 1    
     8    6   33 2    
     9    6    7 1    
    10    7    8 1    
    11    7    9 2    
    12    9   10 1    
    13    9   32 1    
    14   10   31 ar   
    15   10   11 ar   
    16   11   12 ar   
    17   11   39 1    
    18   12   13 ar   
    19   12   40 1    
    20   13   14 ar   
    21   13   41 1    
    22   14   15 1    
    23   14   31 ar   
    24   15   16 1    
    25   15   42 1    
    26   16   30 1    
    27   16   17 1    
    28   16   43 1    
    29   17   18 1    
    30   17   44 1    
    31   17   45 1    
    32   18   19 1    
    33   18   46 1    
    34   18   47 1    
    35   19   20 1    
    36   19   29 1    
    37   20   21 2    
    38   20   22 2    
    39   20   23 1    
    40   23   28 ar   
    41   23   24 ar   
    42   24   25 ar   
    43   24   48 1    
    44   25   26 ar   
    45   25   49 1    
    46   26   27 ar   
    47   26   50 1    
    48   27   28 ar   
    49   27   51 1    
    50   28   52 1    
    51   29   30 1    
    52   29   53 1    
    53   29   54 1    
    54   30   55 1    
    55   30   56 1    
    56   31   57 1    
    57   32   33 1    
    58   33   34 1    
    59   34   35 2    
    60   34   36 1    
@<TRIPOS>SUBSTRUCTURE
     1 UNK         1 GROUP             0       ****    0 ROOT    
