@<TRIPOS>MOLECULE
23479
49   51    1
SMALL
USER_CHARGES


@<TRIPOS>ATOM
      1 C1         35.5544    5.2757   12.3072 C.3       1 UNK         0.0000 
      2 C2         37.0750    5.4456   12.2999 C.2       1 UNK         0.0000 
      3 O3         37.6775    5.2201   11.2503 O.2       1 UNK         0.0000 
      4 N4         37.7153    5.8364   13.4582 N.am      1 UNK         0.0000 
      5 C5         37.0173    6.1412   14.7978 C.3       1 UNK         0.0000 
      6 C6         37.3829    7.5402   15.3340 C.3       1 UNK         0.0000 
      7 C7         38.9114    7.7621   15.4291 C.3       1 UNK         0.0000 
      8 N8         39.1835    9.1385   15.8446 N.pl3     1 UNK         0.0000 
      9 C9         40.4829    9.5699   16.1594 C.ar      1 UNK         0.0000 
     10 C10        41.4815    8.7321   16.6725 C.ar      1 UNK         0.0000 
     11 C11        42.7506    9.2417   16.9424 C.ar      1 UNK         0.0000 
     12 C12        43.0417   10.5800   16.6715 C.ar      1 UNK         0.0000 
     13 C13        42.0577   11.4350   16.1601 C.ar      1 UNK         0.0000 
     14 C14        42.3473   12.8247   15.8292 C.2       1 UNK         0.0000 
     15 S15        43.4366   13.7822   16.8006 S.3       1 UNK         0.0000 
     16 C16        43.2082   15.1991   15.7938 C.2       1 UNK         0.0000 
     17 C17        43.9665   16.4136   16.1781 C.2       1 UNK         0.0000 
     18 O18        44.7099   16.3644   17.1823 O.co2     1 UNK         0.0000 
     19 O19        43.8413   17.4562   15.4971 O.co2     1 UNK         0.0000 
     20 C20        42.3248   14.9326   14.7526 C.2       1 UNK         0.0000 
     21 O21        41.9730   15.8282   13.8005 O.3       1 UNK         0.0000 
     22 C22        40.8053   16.5939   14.0882 C.3       1 UNK         0.0000 
     23 C23        40.2683   17.2823   12.8312 C.2       1 UNK         0.0000 
     24 O24        40.8644   17.0551   11.7554 O.co2     1 UNK         0.0000 
     25 O25        39.2662   18.0188   12.9662 O.co2     1 UNK         0.0000 
     26 C26        41.8775   13.6145   14.7795 C.2       1 UNK         0.0000 
     27 Br27       40.7166   12.9520   13.4196 Br        1 UNK         0.0000 
     28 C28        40.7764   10.9164   15.9496 C.ar      1 UNK         0.0000 
     29 C29        39.6099    7.4194   14.0884 C.3       1 UNK         0.0000 
     30 C30        39.2402    6.0199   13.5606 C.3       1 UNK         0.0000 
     31 H31        35.2034    4.9236   11.3366 H         1 UNK         0.0000 
     32 H32        35.2500    4.5439   13.0560 H         1 UNK         0.0000 
     33 H33        35.0608    6.2251   12.5156 H         1 UNK         0.0000 
     34 H34        35.9326    6.0668   14.7205 H         1 UNK         0.0000 
     35 H35        37.3194    5.3852   15.5226 H         1 UNK         0.0000 
     36 H36        36.9559    8.3025   14.6823 H         1 UNK         0.0000 
     37 H37        36.9346    7.6919   16.3159 H         1 UNK         0.0000 
     38 H38        39.3608    7.6369   14.4440 H         1 UNK         0.0000 
     39 H39        38.3890    9.7609   15.8895 H         1 UNK         0.0000 
     40 H40        41.3037    7.6885   16.8710 H         1 UNK         0.0000 
     41 H41        43.5109    8.5989   17.3609 H         1 UNK         0.0000 
     42 H42        44.0390   10.9524   16.8549 H         1 UNK         0.0000 
     43 H43        40.0208   15.9856   14.5418 H         1 UNK         0.0000 
     44 H44        41.0679   17.3551   14.8233 H         1 UNK         0.0000 
     45 H45        39.9928   11.5836   15.6204 H         1 UNK         0.0000 
     46 H46        39.3376    8.1595   13.3359 H         1 UNK         0.0000 
     47 H47        40.6918    7.4850   14.2037 H         1 UNK         0.0000 
     48 H48        39.7045    5.2681   14.1988 H         1 UNK         0.0000 
     49 H49        39.6700    5.8781   12.5690 H         1 UNK         0.0000 
@<TRIPOS>BOND
     1    1    2 1    
     2    1   31 1    
     3    1   32 1    
     4    1   33 1    
     5    2    3 2    
     6    2    4 am   BACKBONE|DICT|INTERRES
     7    4   30 1    
     8    4    5 1    
     9    5    6 1    
    10    5   34 1    
    11    5   35 1    
    12    6    7 1    
    13    6   36 1    
    14    6   37 1    
    15    7    8 1    
    16    7   29 1    
    17    7   38 1    
    18    8    9 1    
    19    8   39 1    
    20    9   28 ar   
    21    9   10 ar   
    22   10   11 ar   
    23   10   40 1    
    24   11   12 ar   
    25   11   41 1    
    26   12   13 ar   
    27   12   42 1    
    28   13   14 1    
    29   13   28 ar   
    30   14   26 2    
    31   14   15 1    
    32   15   16 1    
    33   16   17 1    
    34   16   20 2    
    35   17   18 2    
    36   17   19 1    
    37   20   21 1    
    38   20   26 1    
    39   21   22 1    
    40   22   23 1    
    41   22   43 1    
    42   22   44 1    
    43   23   24 2    
    44   23   25 1    
    45   26   27 1    
    46   28   45 1    
    47   29   30 1    
    48   29   46 1    
    49   29   47 1    
    50   30   48 1    
    51   30   49 1    
@<TRIPOS>SUBSTRUCTURE
     1 UNK         1 GROUP             0       ****    0 ROOT    
