@<TRIPOS>MOLECULE
23471
35   36    1
SMALL
USER_CHARGES


@<TRIPOS>ATOM
      1 C1         37.0448    9.0699   15.8294 C.3       1 UNK         0.0000 
      2 O2         37.5083    8.2225   16.8671 O.3       1 UNK         0.0000 
      3 C3         38.8187    8.1726   17.1493 C.2       1 UNK         0.0000 
      4 O4         39.3752    7.2244   17.7047 O.2       1 UNK         0.0000 
      5 N5         39.3913    9.3618   16.7178 N.am      1 UNK         0.0000 
      6 C6         40.7401    9.7888   16.8448 C.ar      1 UNK         0.0000 
      7 C7         41.7792    8.9724   17.3118 C.ar      1 UNK         0.0000 
      8 C8         43.0859    9.4573   17.3660 C.ar      1 UNK         0.0000 
      9 C9         43.3652   10.7569   16.9470 C.ar      1 UNK         0.0000 
     10 C10        42.3443   11.5877   16.4784 C.ar      1 UNK         0.0000 
     11 C11        42.6245   12.9340   16.0147 C.2       1 UNK         0.0000 
     12 S12        43.6360   14.0254   16.9149 S.3       1 UNK         0.0000 
     13 C13        43.3652   15.3253   15.7666 C.2       1 UNK         0.0000 
     14 C14        44.0464   16.6111   16.0505 C.2       1 UNK         0.0000 
     15 O15        44.7740   16.6941   17.0640 O.co2     1 UNK         0.0000 
     16 O16        43.8841   17.5767   15.2709 O.co2     1 UNK         0.0000 
     17 C17        42.5145   14.9212   14.7395 C.2       1 UNK         0.0000 
     18 O18        42.0409   15.7421   13.7728 O.3       1 UNK         0.0000 
     19 C19        40.7605   16.3124   14.0330 C.3       1 UNK         0.0000 
     20 C20        40.3270   17.2432   12.8986 C.2       1 UNK         0.0000 
     21 O21        39.2130   17.8008   13.0106 O.co2     1 UNK         0.0000 
     22 O22        41.1154   17.3805   11.9374 O.co2     1 UNK         0.0000 
     23 C23        42.1856   13.5746   14.8668 C.2       1 UNK         0.0000 
     24 Br24       41.1965   12.6902   13.4976 Br        1 UNK         0.0000 
     25 C25        41.0347   11.0942   16.4477 C.ar      1 UNK         0.0000 
     26 H26        35.9619    8.9862   15.7386 H         1 UNK         0.0000 
     27 H27        37.2894   10.1118   16.0395 H         1 UNK         0.0000 
     28 H28        37.4891    8.7922   14.8727 H         1 UNK         0.0000 
     29 H29        38.7407   10.0195   16.3138 H         1 UNK         0.0000 
     30 H30        41.6050    7.9561   17.6278 H         1 UNK         0.0000 
     31 H31        43.8812    8.8223   17.7275 H         1 UNK         0.0000 
     32 H32        44.3841   11.1146   16.9778 H         1 UNK         0.0000 
     33 H33        40.0358   15.5022   14.1145 H         1 UNK         0.0000 
     34 H34        40.7356   16.8455   14.9852 H         1 UNK         0.0000 
     35 H35        40.2344   11.7412   16.1190 H         1 UNK         0.0000 
@<TRIPOS>BOND
     1    1    2 1    
     2    1   26 1    
     3    1   27 1    
     4    1   28 1    
     5    2    3 1    
     6    3    4 2    
     7    3    5 am   BACKBONE|DICT|INTERRES
     8    5    6 1    
     9    5   29 1    
    10    6   25 ar   
    11    6    7 ar   
    12    7    8 ar   
    13    7   30 1    
    14    8    9 ar   
    15    8   31 1    
    16    9   10 ar   
    17    9   32 1    
    18   10   11 1    
    19   10   25 ar   
    20   11   23 2    
    21   11   12 1    
    22   12   13 1    
    23   13   14 1    
    24   13   17 2    
    25   14   15 2    
    26   14   16 1    
    27   17   18 1    
    28   17   23 1    
    29   18   19 1    
    30   19   20 1    
    31   19   33 1    
    32   19   34 1    
    33   20   21 2    
    34   20   22 1    
    35   23   24 1    
    36   25   35 1    
@<TRIPOS>SUBSTRUCTURE
     1 UNK         1 GROUP             0       ****    0 ROOT    
