@<TRIPOS>MOLECULE
23486
60   63    1
SMALL
USER_CHARGES


@<TRIPOS>ATOM
      1 O1         41.3719   17.7859   11.8178 O.co2     1 UNK         0.0000 
      2 C2         40.5610   17.6340   12.7587 C.2       1 UNK         0.0000 
      3 O3         39.4799   18.2504   12.8841 O.co2     1 UNK         0.0000 
      4 C4         40.9135   16.6417   13.8689 C.3       1 UNK         0.0000 
      5 O5         42.1428   15.9801   13.5995 O.3       1 UNK         0.0000 
      6 C6         42.5067   15.0961   14.5535 C.2       1 UNK         0.0000 
      7 C7         42.1050   13.7638   14.6029 C.2       1 UNK         0.0000 
      8 Cl8        41.1936   13.1078   13.3221 Cl        1 UNK         0.0000 
      9 C9         42.4736   13.0428   15.7309 C.2       1 UNK         0.0000 
     10 C10        42.1345   11.6814   16.1187 C.ar      1 UNK         0.0000 
     11 C11        43.0991   10.8232   16.6550 C.ar      1 UNK         0.0000 
     12 C12        42.7730    9.5138   17.0059 C.ar      1 UNK         0.0000 
     13 C13        41.4767    9.0403   16.8075 C.ar      1 UNK         0.0000 
     14 C14        40.4943    9.8795   16.2662 C.ar      1 UNK         0.0000 
     15 N15        39.1733    9.4611   16.0229 N.pl3     1 UNK         0.0000 
     16 C16        38.8803    8.0706   15.6816 C.3       1 UNK         0.0000 
     17 C17        37.3499    7.8627   15.5714 C.3       1 UNK         0.0000 
     18 C18        36.9746    6.4537   15.0726 C.3       1 UNK         0.0000 
     19 N19        37.7104    6.1236   13.8434 N.pl3     1 UNK         0.0000 
     20 S20        36.9761    5.2050   12.5892 S.o2      1 UNK         0.0000 
     21 O21        37.8364    5.3259   11.4042 O.2       1 UNK         0.0000 
     22 O22        35.5548    5.5863   12.5166 O.2       1 UNK         0.0000 
     23 C23        37.1037    3.4728   13.2183 C.3       1 UNK         0.0000 
     24 C24        36.7137    2.5266   12.0998 C.ar      1 UNK         0.0000 
     25 C25        35.3715    2.1867   11.9063 C.ar      1 UNK         0.0000 
     26 C26        35.0075    1.3509   10.8514 C.ar      1 UNK         0.0000 
     27 C27        35.9839    0.8540    9.9894 C.ar      1 UNK         0.0000 
     28 C28        37.3260    1.1810   10.1830 C.ar      1 UNK         0.0000 
     29 C29        37.6914    2.0147   11.2396 C.ar      1 UNK         0.0000 
     30 C30        39.1749    6.2318   13.9220 C.3       1 UNK         0.0000 
     31 C31        39.5890    7.6410   14.3716 C.3       1 UNK         0.0000 
     32 C32        40.8302   11.1974   15.9487 C.ar      1 UNK         0.0000 
     33 S33        43.4983   14.0501   16.7177 S.3       1 UNK         0.0000 
     34 C34        43.3217   15.4163   15.6304 C.2       1 UNK         0.0000 
     35 C35        44.0366   16.6604   15.9998 C.2       1 UNK         0.0000 
     36 O36        44.7231   16.6703   17.0446 O.co2     1 UNK         0.0000 
     37 O37        43.9382   17.6666   15.2618 O.co2     1 UNK         0.0000 
     38 H38        40.1097   15.9098   13.9588 H         1 UNK         0.0000 
     39 H39        40.9711   17.1834   14.8146 H         1 UNK         0.0000 
     40 H40        44.1107   11.1702   16.8078 H         1 UNK         0.0000 
     41 H41        43.5251    8.8657   17.4310 H         1 UNK         0.0000 
     42 H42        41.2433    8.0195   17.0736 H         1 UNK         0.0000 
     43 H43        38.4432   10.1496   16.1366 H         1 UNK         0.0000 
     44 H44        39.2589    7.4686   16.5076 H         1 UNK         0.0000 
     45 H45        36.8766    8.0462   16.5360 H         1 UNK         0.0000 
     46 H46        36.9348    8.6028   14.8873 H         1 UNK         0.0000 
     47 H47        37.2043    5.6975   15.8233 H         1 UNK         0.0000 
     48 H48        35.9002    6.3859   14.9017 H         1 UNK         0.0000 
     49 H49        38.1412    3.3049   13.5075 H         1 UNK         0.0000 
     50 H50        36.4977    3.3763   14.1188 H         1 UNK         0.0000 
     51 H51        34.6147    2.5649   12.5777 H         1 UNK         0.0000 
     52 H52        33.9702    1.0888   10.7035 H         1 UNK         0.0000 
     53 H53        35.7015    0.2167    9.1646 H         1 UNK         0.0000 
     54 H54        38.0784    0.7898    9.5143 H         1 UNK         0.0000 
     55 H55        38.7325    2.2599   11.3891 H         1 UNK         0.0000 
     56 H56        39.5253    5.4655   14.6134 H         1 UNK         0.0000 
     57 H57        39.6129    5.9826   12.9555 H         1 UNK         0.0000 
     58 H58        39.3499    8.3541   13.5828 H         1 UNK         0.0000 
     59 H59        40.6706    7.6852   14.4991 H         1 UNK         0.0000 
     60 H60        40.0961   11.8770   15.5523 H         1 UNK         0.0000 
@<TRIPOS>BOND
     1    1    2 2    
     2    2    3 1    
     3    2    4 1    
     4    4    5 1    
     5    4   38 1    
     6    4   39 1    
     7    5    6 1    
     8    6   34 2    
     9    6    7 1    
    10    7    8 1    
    11    7    9 2    
    12    9   10 1    
    13    9   33 1    
    14   10   32 ar   
    15   10   11 ar   
    16   11   12 ar   
    17   11   40 1    
    18   12   13 ar   
    19   12   41 1    
    20   13   14 ar   
    21   13   42 1    
    22   14   15 1    
    23   14   32 ar   
    24   15   16 1    
    25   15   43 1    
    26   16   31 1    
    27   16   17 1    
    28   16   44 1    
    29   17   18 1    
    30   17   45 1    
    31   17   46 1    
    32   18   19 1    
    33   18   47 1    
    34   18   48 1    
    35   19   20 1    
    36   19   30 1    
    37   20   21 2    
    38   20   22 2    
    39   20   23 1    
    40   23   24 1    
    41   23   49 1    
    42   23   50 1    
    43   24   29 ar   
    44   24   25 ar   
    45   25   26 ar   
    46   25   51 1    
    47   26   27 ar   
    48   26   52 1    
    49   27   28 ar   
    50   27   53 1    
    51   28   29 ar   
    52   28   54 1    
    53   29   55 1    
    54   30   31 1    
    55   30   56 1    
    56   30   57 1    
    57   31   58 1    
    58   31   59 1    
    59   32   60 1    
    60   33   34 1    
    61   34   35 1    
    62   35   36 2    
    63   35   37 1    
@<TRIPOS>SUBSTRUCTURE
     1 UNK         1 GROUP             0       ****    0 ROOT    
