@<TRIPOS>MOLECULE
23480
50   52    1
SMALL
USER_CHARGES


@<TRIPOS>ATOM
      1 C1         34.9009    4.9769   11.4174 C.3       1 UNK         0.0000 
      2 O2         35.7432    5.3667   12.4886 O.3       1 UNK         0.0000 
      3 C3         37.0750    5.4456   12.2999 C.2       1 UNK         0.0000 
      4 O4         37.6240    5.2031   11.2233 O.2       1 UNK         0.0000 
      5 N5         37.7153    5.8364   13.4582 N.am      1 UNK         0.0000 
      6 C6         37.0173    6.1412   14.7978 C.3       1 UNK         0.0000 
      7 C7         37.3829    7.5402   15.3340 C.3       1 UNK         0.0000 
      8 C8         38.9114    7.7621   15.4291 C.3       1 UNK         0.0000 
      9 N9         39.1835    9.1385   15.8446 N.pl3     1 UNK         0.0000 
     10 C10        40.4829    9.5699   16.1594 C.ar      1 UNK         0.0000 
     11 C11        41.4815    8.7321   16.6725 C.ar      1 UNK         0.0000 
     12 C12        42.7506    9.2417   16.9424 C.ar      1 UNK         0.0000 
     13 C13        43.0417   10.5800   16.6715 C.ar      1 UNK         0.0000 
     14 C14        42.0577   11.4350   16.1601 C.ar      1 UNK         0.0000 
     15 C15        42.3473   12.8247   15.8292 C.2       1 UNK         0.0000 
     16 S16        43.4366   13.7822   16.8006 S.3       1 UNK         0.0000 
     17 C17        43.2082   15.1991   15.7938 C.2       1 UNK         0.0000 
     18 C18        43.9488   16.4202   16.1914 C.2       1 UNK         0.0000 
     19 O19        44.6955   16.3700   17.1931 O.co2     1 UNK         0.0000 
     20 O20        43.8161   17.4656   15.5160 O.co2     1 UNK         0.0000 
     21 C21        42.3248   14.9326   14.7526 C.2       1 UNK         0.0000 
     22 O22        41.9117   15.8500   13.8469 O.3       1 UNK         0.0000 
     23 C23        40.9786   16.8101   14.3368 C.3       1 UNK         0.0000 
     24 C24        40.2316   17.4946   13.1897 C.2       1 UNK         0.0000 
     25 O25        40.8772   17.7240   12.1431 O.co2     1 UNK         0.0000 
     26 O26        39.0259   17.7704   13.3758 O.co2     1 UNK         0.0000 
     27 C27        41.8775   13.6145   14.7795 C.2       1 UNK         0.0000 
     28 Br28       40.6623   12.9713   13.4584 Br        1 UNK         0.0000 
     29 C29        40.7764   10.9164   15.9496 C.ar      1 UNK         0.0000 
     30 C30        39.6099    7.4194   14.0884 C.3       1 UNK         0.0000 
     31 C31        39.2402    6.0199   13.5606 C.3       1 UNK         0.0000 
     32 H32        33.8622    4.9680   11.7475 H         1 UNK         0.0000 
     33 H33        34.9868    5.6730   10.5821 H         1 UNK         0.0000 
     34 H34        35.1554    3.9760   11.0666 H         1 UNK         0.0000 
     35 H35        35.9326    6.0668   14.7205 H         1 UNK         0.0000 
     36 H36        37.3194    5.3852   15.5226 H         1 UNK         0.0000 
     37 H37        36.9559    8.3026   14.6823 H         1 UNK         0.0000 
     38 H38        36.9346    7.6919   16.3159 H         1 UNK         0.0000 
     39 H39        39.3608    7.6369   14.4440 H         1 UNK         0.0000 
     40 H40        38.3877    9.7586   15.8969 H         1 UNK         0.0000 
     41 H41        41.3038    7.6884   16.8704 H         1 UNK         0.0000 
     42 H42        43.5100    8.5997   17.3637 H         1 UNK         0.0000 
     43 H43        44.0359   10.9552   16.8655 H         1 UNK         0.0000 
     44 H44        40.2570   16.2936   14.9701 H         1 UNK         0.0000 
     45 H45        41.4591   17.5609   14.9666 H         1 UNK         0.0000 
     46 H46        39.9957   11.5812   15.6086 H         1 UNK         0.0000 
     47 H47        39.3376    8.1595   13.3359 H         1 UNK         0.0000 
     48 H48        40.6918    7.4850   14.2037 H         1 UNK         0.0000 
     49 H49        39.7045    5.2681   14.1988 H         1 UNK         0.0000 
     50 H50        39.6700    5.8781   12.5690 H         1 UNK         0.0000 
@<TRIPOS>BOND
     1    1    2 1    
     2    1   32 1    
     3    1   33 1    
     4    1   34 1    
     5    2    3 1    
     6    3    4 2    
     7    3    5 am   BACKBONE|DICT|INTERRES
     8    5   31 1    
     9    5    6 1    
    10    6    7 1    
    11    6   35 1    
    12    6   36 1    
    13    7    8 1    
    14    7   37 1    
    15    7   38 1    
    16    8    9 1    
    17    8   30 1    
    18    8   39 1    
    19    9   10 1    
    20    9   40 1    
    21   10   29 ar   
    22   10   11 ar   
    23   11   12 ar   
    24   11   41 1    
    25   12   13 ar   
    26   12   42 1    
    27   13   14 ar   
    28   13   43 1    
    29   14   15 1    
    30   14   29 ar   
    31   15   27 2    
    32   15   16 1    
    33   16   17 1    
    34   17   18 1    
    35   17   21 2    
    36   18   19 2    
    37   18   20 1    
    38   21   22 1    
    39   21   27 1    
    40   22   23 1    
    41   23   24 1    
    42   23   44 1    
    43   23   45 1    
    44   24   25 2    
    45   24   26 1    
    46   27   28 1    
    47   29   46 1    
    48   30   31 1    
    49   30   47 1    
    50   30   48 1    
    51   31   49 1    
    52   31   50 1    
@<TRIPOS>SUBSTRUCTURE
     1 UNK         1 GROUP             0       ****    0 ROOT    
