@<TRIPOS>MOLECULE
23466
29   30    1
SMALL
USER_CHARGES


@<TRIPOS>ATOM
      1 N1         39.2136    9.0772   15.8610 N.pl3     1 UNK         0.0000 
      2 C2         40.4829    9.5699   16.1594 C.ar      1 UNK         0.0000 
      3 C3         41.4815    8.7321   16.6725 C.ar      1 UNK         0.0000 
      4 C4         42.7506    9.2417   16.9424 C.ar      1 UNK         0.0000 
      5 C5         43.0417   10.5800   16.6715 C.ar      1 UNK         0.0000 
      6 C6         42.0577   11.4350   16.1601 C.ar      1 UNK         0.0000 
      7 C7         42.3473   12.8247   15.8292 C.2       1 UNK         0.0000 
      8 S8         43.4366   13.7822   16.8006 S.3       1 UNK         0.0000 
      9 C9         43.2082   15.1991   15.7938 C.2       1 UNK         0.0000 
     10 C10        43.9543   16.4193   16.1786 C.2       1 UNK         0.0000 
     11 O11        43.8122   17.4512   15.4873 O.co2     1 UNK         0.0000 
     12 O12        44.7036   16.3893   17.1807 O.co2     1 UNK         0.0000 
     13 C13        42.3248   14.9326   14.7526 C.2       1 UNK         0.0000 
     14 O14        41.9652   15.8350   13.8147 O.3       1 UNK         0.0000 
     15 C15        40.7723   16.5454   14.1198 C.3       1 UNK         0.0000 
     16 C16        40.4157   17.5289   13.0030 C.2       1 UNK         0.0000 
     17 O17        39.4252   18.2758   13.1672 O.co2     1 UNK         0.0000 
     18 O18        41.1620   17.5310   11.9993 O.co2     1 UNK         0.0000 
     19 C19        41.8775   13.6145   14.7795 C.2       1 UNK         0.0000 
     20 Br20       40.7114   12.9632   13.4193 Br        1 UNK         0.0000 
     21 C21        40.7764   10.9164   15.9496 C.ar      1 UNK         0.0000 
     22 H22        38.9878    8.0990   15.9708 H         1 UNK         0.0000 
     23 H23        38.5005    9.6676   15.4573 H         1 UNK         0.0000 
     24 H24        41.2762    7.6884   16.8616 H         1 UNK         0.0000 
     25 H25        43.5121    8.6004   17.3610 H         1 UNK         0.0000 
     26 H26        44.0397   10.9502   16.8547 H         1 UNK         0.0000 
     27 H27        39.9326   15.8609   14.2528 H         1 UNK         0.0000 
     28 H28        40.9025   17.0914   15.0552 H         1 UNK         0.0000 
     29 H29        39.9956   11.5864   15.6198 H         1 UNK         0.0000 
@<TRIPOS>BOND
     1    1    2 1    
     2    1   22 1    
     3    1   23 1    
     4    2   21 ar   
     5    2    3 ar   
     6    3    4 ar   
     7    3   24 1    
     8    4    5 ar   
     9    4   25 1    
    10    5    6 ar   
    11    5   26 1    
    12    6    7 1    
    13    6   21 ar   
    14    7   19 2    
    15    7    8 1    
    16    8    9 1    
    17    9   10 1    
    18    9   13 2    
    19   10   11 2    
    20   10   12 1    
    21   13   14 1    
    22   13   19 1    
    23   14   15 1    
    24   15   16 1    
    25   15   27 1    
    26   15   28 1    
    27   16   17 2    
    28   16   18 1    
    29   19   20 1    
    30   21   29 1    
@<TRIPOS>SUBSTRUCTURE
     1 UNK         1 GROUP             0       ****    0 ROOT    
