@<TRIPOS>MOLECULE
23474
48   50    1
SMALL
USER_CHARGES


@<TRIPOS>ATOM
      1 O1         39.1872   17.7319   12.9711 O.co2     1 UNK         0.0000 
      2 C2         40.3302   17.2264   12.9065 C.2       1 UNK         0.0000 
      3 O3         41.1481   17.4091   11.9779 O.co2     1 UNK         0.0000 
      4 C4         40.7697   16.2873   14.0319 C.3       1 UNK         0.0000 
      5 O5         42.0557   15.7410   13.7696 O.3       1 UNK         0.0000 
      6 C6         42.5145   14.9212   14.7395 C.2       1 UNK         0.0000 
      7 C7         42.1856   13.5746   14.8668 C.2       1 UNK         0.0000 
      8 Br8        41.1590   12.6662   13.5413 Br        1 UNK         0.0000 
      9 C9         42.6245   12.9340   16.0147 C.2       1 UNK         0.0000 
     10 C10        42.3443   11.5877   16.4784 C.ar      1 UNK         0.0000 
     11 C11        43.3652   10.7569   16.9470 C.ar      1 UNK         0.0000 
     12 C12        43.0859    9.4573   17.3660 C.ar      1 UNK         0.0000 
     13 C13        41.7792    8.9724   17.3118 C.ar      1 UNK         0.0000 
     14 C14        40.7401    9.7888   16.8448 C.ar      1 UNK         0.0000 
     15 N15        39.4485    9.2406   16.7948 N.pl3     1 UNK         0.0000 
     16 C16        39.1815    7.8314   17.0618 C.3       1 UNK         0.0000 
     17 C17        39.6686    6.9137   15.9440 C.3       1 UNK         0.0000 
     18 C18        41.1881    7.0661   15.7647 C.3       1 UNK         0.0000 
     19 C19        41.7017    6.2017   14.6013 C.3       1 UNK         0.0000 
     20 C20        40.9517    6.5196   13.2971 C.3       1 UNK         0.0000 
     21 C21        39.4321    6.3672   13.4765 C.3       1 UNK         0.0000 
     22 C22        38.9186    7.2316   14.6399 C.3       1 UNK         0.0000 
     23 C23        41.0347   11.0942   16.4477 C.ar      1 UNK         0.0000 
     24 S24        43.6360   14.0254   16.9149 S.3       1 UNK         0.0000 
     25 C25        43.3652   15.3253   15.7666 C.2       1 UNK         0.0000 
     26 C26        44.0486   16.6108   16.0385 C.2       1 UNK         0.0000 
     27 O27        43.8781   17.5598   15.2428 O.co2     1 UNK         0.0000 
     28 O28        44.7767   16.7158   17.0512 O.co2     1 UNK         0.0000 
     29 H29        40.0442   15.4789   14.1331 H         1 UNK         0.0000 
     30 H30        40.7670   16.8505   14.9669 H         1 UNK         0.0000 
     31 H31        44.3826   11.1175   16.9916 H         1 UNK         0.0000 
     32 H32        43.8816    8.8264   17.7339 H         1 UNK         0.0000 
     33 H33        41.5761    7.9619   17.6355 H         1 UNK         0.0000 
     34 H34        38.7190    9.7741   16.3443 H         1 UNK         0.0000 
     35 H35        38.1330    7.6479   17.2935 H         1 UNK         0.0000 
     36 H36        39.7226    7.5861   17.9760 H         1 UNK         0.0000 
     37 H37        39.4374    5.8967   16.2607 H         1 UNK         0.0000 
     38 H38        41.4318    8.1121   15.5789 H         1 UNK         0.0000 
     39 H39        41.7008    6.7916   16.6866 H         1 UNK         0.0000 
     40 H40        42.7712    6.3608   14.4636 H         1 UNK         0.0000 
     41 H41        41.5784    5.1468   14.8467 H         1 UNK         0.0000 
     42 H42        41.1828    7.5366   12.9805 H         1 UNK         0.0000 
     43 H43        41.2996    5.8641   12.4988 H         1 UNK         0.0000 
     44 H44        38.9194    6.6417   12.5546 H         1 UNK         0.0000 
     45 H45        39.1885    5.3212   13.6622 H         1 UNK         0.0000 
     46 H46        37.8491    7.0725   14.7776 H         1 UNK         0.0000 
     47 H47        39.0419    8.2865   14.3944 H         1 UNK         0.0000 
     48 H48        40.2540   11.7471   16.0927 H         1 UNK         0.0000 
@<TRIPOS>BOND
     1    1    2 2    
     2    2    3 1    
     3    2    4 1    
     4    4    5 1    
     5    4   29 1    
     6    4   30 1    
     7    5    6 1    
     8    6   25 2    
     9    6    7 1    
    10    7    8 1    
    11    7    9 2    
    12    9   10 1    
    13    9   24 1    
    14   10   23 ar   
    15   10   11 ar   
    16   11   12 ar   
    17   11   31 1    
    18   12   13 ar   
    19   12   32 1    
    20   13   14 ar   
    21   13   33 1    
    22   14   15 1    
    23   14   23 ar   
    24   15   16 1    
    25   15   34 1    
    26   16   17 1    
    27   16   35 1    
    28   16   36 1    
    29   17   22 1    
    30   17   18 1    
    31   17   37 1    
    32   18   19 1    
    33   18   38 1    
    34   18   39 1    
    35   19   20 1    
    36   19   40 1    
    37   19   41 1    
    38   20   21 1    
    39   20   42 1    
    40   20   43 1    
    41   21   22 1    
    42   21   44 1    
    43   21   45 1    
    44   22   46 1    
    45   22   47 1    
    46   23   48 1    
    47   24   25 1    
    48   25   26 1    
    49   26   27 2    
    50   26   28 1    
@<TRIPOS>SUBSTRUCTURE
     1 UNK         1 GROUP             0       ****    0 ROOT    
