@<TRIPOS>MOLECULE
23485
63   66    1
SMALL
USER_CHARGES


@<TRIPOS>ATOM
      1 C1         41.3040   13.2036   13.4628 C.3       1 UNK         0.0000 
      2 C2         42.1050   13.7638   14.6029 C.2       1 UNK         0.0000 
      3 C3         42.5067   15.0961   14.5535 C.2       1 UNK         0.0000 
      4 O4         42.1497   15.9428   13.5632 O.3       1 UNK         0.0000 
      5 C5         41.1085   16.8483   13.9109 C.3       1 UNK         0.0000 
      6 C6         40.5926   17.5867   12.6738 C.2       1 UNK         0.0000 
      7 O7         41.2437   17.4781   11.6105 O.co2     1 UNK         0.0000 
      8 O8         39.5308   18.2342   12.8065 O.co2     1 UNK         0.0000 
      9 C9         43.3217   15.4163   15.6304 C.2       1 UNK         0.0000 
     10 C10        44.0363   16.6612   16.0003 C.2       1 UNK         0.0000 
     11 O11        44.7190   16.6734   17.0477 O.co2     1 UNK         0.0000 
     12 O12        43.9409   17.6673   15.2623 O.co2     1 UNK         0.0000 
     13 S13        43.4983   14.0501   16.7177 S.3       1 UNK         0.0000 
     14 C14        42.4736   13.0428   15.7309 C.2       1 UNK         0.0000 
     15 C15        42.1345   11.6814   16.1187 C.ar      1 UNK         0.0000 
     16 C16        43.0991   10.8232   16.6550 C.ar      1 UNK         0.0000 
     17 C17        42.7730    9.5138   17.0059 C.ar      1 UNK         0.0000 
     18 C18        41.4767    9.0403   16.8075 C.ar      1 UNK         0.0000 
     19 C19        40.4943    9.8795   16.2662 C.ar      1 UNK         0.0000 
     20 N20        39.1733    9.4611   16.0229 N.pl3     1 UNK         0.0000 
     21 C21        38.8803    8.0706   15.6816 C.3       1 UNK         0.0000 
     22 C22        37.3499    7.8627   15.5714 C.3       1 UNK         0.0000 
     23 C23        36.9746    6.4537   15.0726 C.3       1 UNK         0.0000 
     24 N24        37.7104    6.1236   13.8434 N.pl3     1 UNK         0.0000 
     25 S25        36.9761    5.2050   12.5892 S.o2      1 UNK         0.0000 
     26 O26        37.8364    5.3259   11.4042 O.2       1 UNK         0.0000 
     27 O27        35.5548    5.5863   12.5166 O.2       1 UNK         0.0000 
     28 C28        37.1037    3.4728   13.2183 C.3       1 UNK         0.0000 
     29 C29        36.7137    2.5266   12.0998 C.ar      1 UNK         0.0000 
     30 C30        35.3715    2.1867   11.9063 C.ar      1 UNK         0.0000 
     31 C31        35.0075    1.3509   10.8514 C.ar      1 UNK         0.0000 
     32 C32        35.9839    0.8540    9.9894 C.ar      1 UNK         0.0000 
     33 C33        37.3260    1.1810   10.1830 C.ar      1 UNK         0.0000 
     34 C34        37.6914    2.0147   11.2396 C.ar      1 UNK         0.0000 
     35 C35        39.1749    6.2318   13.9220 C.3       1 UNK         0.0000 
     36 C36        39.5890    7.6410   14.3716 C.3       1 UNK         0.0000 
     37 C37        40.8302   11.1974   15.9487 C.ar      1 UNK         0.0000 
     38 H38        40.7756   13.9858   12.9180 H         1 UNK         0.0000 
     39 H39        41.9462   12.6879   12.7491 H         1 UNK         0.0000 
     40 H40        40.5530   12.4943   13.8108 H         1 UNK         0.0000 
     41 H41        40.2650   16.3316   14.3730 H         1 UNK         0.0000 
     42 H42        41.4848   17.5702   14.6364 H         1 UNK         0.0000 
     43 H43        44.1102   11.1712   16.8072 H         1 UNK         0.0000 
     44 H44        43.5249    8.8662   17.4322 H         1 UNK         0.0000 
     45 H45        41.2420    8.0208   17.0774 H         1 UNK         0.0000 
     46 H46        38.4546   10.1706   16.0360 H         1 UNK         0.0000 
     47 H47        39.2589    7.4686   16.5076 H         1 UNK         0.0000 
     48 H48        36.8766    8.0462   16.5360 H         1 UNK         0.0000 
     49 H49        36.9348    8.6028   14.8873 H         1 UNK         0.0000 
     50 H50        37.2043    5.6975   15.8233 H         1 UNK         0.0000 
     51 H51        35.9002    6.3859   14.9017 H         1 UNK         0.0000 
     52 H52        38.1418    3.3069   13.5060 H         1 UNK         0.0000 
     53 H53        36.4999    3.3814   14.1208 H         1 UNK         0.0000 
     54 H54        34.6108    2.5601   12.5771 H         1 UNK         0.0000 
     55 H55        33.9697    1.0902   10.7043 H         1 UNK         0.0000 
     56 H56        35.7021    0.2157    9.1651 H         1 UNK         0.0000 
     57 H57        38.0787    0.7895    9.5148 H         1 UNK         0.0000 
     58 H58        38.7326    2.2586   11.3919 H         1 UNK         0.0000 
     59 H59        39.5253    5.4655   14.6134 H         1 UNK         0.0000 
     60 H60        39.6129    5.9826   12.9555 H         1 UNK         0.0000 
     61 H61        39.3499    8.3541   13.5828 H         1 UNK         0.0000 
     62 H62        40.6706    7.6852   14.4991 H         1 UNK         0.0000 
     63 H63        40.0952   11.8772   15.5562 H         1 UNK         0.0000 
@<TRIPOS>BOND
     1    1    2 1    
     2    1   38 1    
     3    1   39 1    
     4    1   40 1    
     5    2   14 2    
     6    2    3 1    
     7    3    4 1    
     8    3    9 2    
     9    4    5 1    
    10    5    6 1    
    11    5   41 1    
    12    5   42 1    
    13    6    7 2    
    14    6    8 1    
    15    9   10 1    
    16    9   13 1    
    17   10   11 2    
    18   10   12 1    
    19   13   14 1    
    20   14   15 1    
    21   15   37 ar   
    22   15   16 ar   
    23   16   17 ar   
    24   16   43 1    
    25   17   18 ar   
    26   17   44 1    
    27   18   19 ar   
    28   18   45 1    
    29   19   20 1    
    30   19   37 ar   
    31   20   21 1    
    32   20   46 1    
    33   21   36 1    
    34   21   22 1    
    35   21   47 1    
    36   22   23 1    
    37   22   48 1    
    38   22   49 1    
    39   23   24 1    
    40   23   50 1    
    41   23   51 1    
    42   24   25 1    
    43   24   35 1    
    44   25   26 2    
    45   25   27 2    
    46   25   28 1    
    47   28   29 1    
    48   28   52 1    
    49   28   53 1    
    50   29   34 ar   
    51   29   30 ar   
    52   30   31 ar   
    53   30   54 1    
    54   31   32 ar   
    55   31   55 1    
    56   32   33 ar   
    57   32   56 1    
    58   33   34 ar   
    59   33   57 1    
    60   34   58 1    
    61   35   36 1    
    62   35   59 1    
    63   35   60 1    
    64   36   61 1    
    65   36   62 1    
    66   37   63 1    
@<TRIPOS>SUBSTRUCTURE
     1 UNK         1 GROUP             0       ****    0 ROOT    
