@<TRIPOS>MOLECULE
23484
60   63    1
SMALL
USER_CHARGES


@<TRIPOS>ATOM
      1 O1         39.4259   18.2063   12.7913 O.co2     1 UNK         0.0000 
      2 C2         40.5386   17.6364   12.7356 C.2       1 UNK         0.0000 
      3 O3         41.3997   17.8212   11.8476 O.co2     1 UNK         0.0000 
      4 C4         40.8943   16.6402   13.8461 C.3       1 UNK         0.0000 
      5 O5         42.1348   15.9824   13.6021 O.3       1 UNK         0.0000 
      6 C6         42.5067   15.0961   14.5535 C.2       1 UNK         0.0000 
      7 C7         42.1050   13.7638   14.6029 C.2       1 UNK         0.0000 
      8 C8         42.4736   13.0428   15.7309 C.2       1 UNK         0.0000 
      9 C9         42.1345   11.6814   16.1187 C.ar      1 UNK         0.0000 
     10 C10        43.0991   10.8232   16.6550 C.ar      1 UNK         0.0000 
     11 C11        42.7730    9.5138   17.0059 C.ar      1 UNK         0.0000 
     12 C12        41.4767    9.0403   16.8075 C.ar      1 UNK         0.0000 
     13 C13        40.4943    9.8795   16.2662 C.ar      1 UNK         0.0000 
     14 N14        39.1733    9.4611   16.0229 N.pl3     1 UNK         0.0000 
     15 C15        38.8803    8.0706   15.6816 C.3       1 UNK         0.0000 
     16 C16        37.3499    7.8627   15.5714 C.3       1 UNK         0.0000 
     17 C17        36.9746    6.4537   15.0726 C.3       1 UNK         0.0000 
     18 N18        37.7104    6.1236   13.8434 N.pl3     1 UNK         0.0000 
     19 S19        36.9761    5.2050   12.5892 S.o2      1 UNK         0.0000 
     20 O20        37.8364    5.3259   11.4042 O.2       1 UNK         0.0000 
     21 O21        35.5548    5.5863   12.5166 O.2       1 UNK         0.0000 
     22 C22        37.1037    3.4728   13.2183 C.3       1 UNK         0.0000 
     23 C23        36.7137    2.5266   12.0998 C.ar      1 UNK         0.0000 
     24 C24        35.3715    2.1867   11.9063 C.ar      1 UNK         0.0000 
     25 C25        35.0075    1.3509   10.8514 C.ar      1 UNK         0.0000 
     26 C26        35.9839    0.8540    9.9894 C.ar      1 UNK         0.0000 
     27 C27        37.3260    1.1810   10.1830 C.ar      1 UNK         0.0000 
     28 C28        37.6914    2.0147   11.2396 C.ar      1 UNK         0.0000 
     29 C29        39.1749    6.2318   13.9220 C.3       1 UNK         0.0000 
     30 C30        39.5890    7.6410   14.3716 C.3       1 UNK         0.0000 
     31 C31        40.8302   11.1974   15.9487 C.ar      1 UNK         0.0000 
     32 S32        43.4983   14.0501   16.7177 S.3       1 UNK         0.0000 
     33 C33        43.3217   15.4163   15.6304 C.2       1 UNK         0.0000 
     34 C34        44.0369   16.6621   15.9952 C.2       1 UNK         0.0000 
     35 O35        44.7246   16.6743   17.0397 O.co2     1 UNK         0.0000 
     36 O36        43.9393   17.6669   15.2557 O.co2     1 UNK         0.0000 
     37 H37        40.1114   15.8832   13.8904 H         1 UNK         0.0000 
     38 H38        40.8959   17.1443   14.8148 H         1 UNK         0.0000 
     39 H39        41.5362   13.3167   13.8010 H         1 UNK         0.0000 
     40 H40        44.1102   11.1702   16.8114 H         1 UNK         0.0000 
     41 H41        43.5245    8.8663   17.4330 H         1 UNK         0.0000 
     42 H42        41.2435    8.0196   17.0741 H         1 UNK         0.0000 
     43 H43        38.4495   10.1616   16.0962 H         1 UNK         0.0000 
     44 H44        39.2589    7.4686   16.5076 H         1 UNK         0.0000 
     45 H45        36.8766    8.0462   16.5360 H         1 UNK         0.0000 
     46 H46        36.9348    8.6028   14.8873 H         1 UNK         0.0000 
     47 H47        37.2043    5.6975   15.8233 H         1 UNK         0.0000 
     48 H48        35.9002    6.3859   14.9017 H         1 UNK         0.0000 
     49 H49        38.1417    3.3051   13.5054 H         1 UNK         0.0000 
     50 H50        36.4997    3.3778   14.1203 H         1 UNK         0.0000 
     51 H51        34.6122    2.5581   12.5796 H         1 UNK         0.0000 
     52 H52        33.9695    1.0894   10.7059 H         1 UNK         0.0000 
     53 H53        35.7021    0.2151    9.1655 H         1 UNK         0.0000 
     54 H54        38.0786    0.7889    9.5150 H         1 UNK         0.0000 
     55 H55        38.7325    2.2595   11.3901 H         1 UNK         0.0000 
     56 H56        39.5253    5.4655   14.6134 H         1 UNK         0.0000 
     57 H57        39.6129    5.9826   12.9555 H         1 UNK         0.0000 
     58 H58        39.3499    8.3541   13.5828 H         1 UNK         0.0000 
     59 H59        40.6706    7.6852   14.4991 H         1 UNK         0.0000 
     60 H60        40.0876   11.8684   15.5552 H         1 UNK         0.0000 
@<TRIPOS>BOND
     1    1    2 2    
     2    2    3 1    
     3    2    4 1    
     4    4    5 1    
     5    4   37 1    
     6    4   38 1    
     7    5    6 1    
     8    6   33 2    
     9    6    7 1    
    10    7    8 2    
    11    7   39 1    
    12    8    9 1    
    13    8   32 1    
    14    9   31 ar   
    15    9   10 ar   
    16   10   11 ar   
    17   10   40 1    
    18   11   12 ar   
    19   11   41 1    
    20   12   13 ar   
    21   12   42 1    
    22   13   14 1    
    23   13   31 ar   
    24   14   15 1    
    25   14   43 1    
    26   15   30 1    
    27   15   16 1    
    28   15   44 1    
    29   16   17 1    
    30   16   45 1    
    31   16   46 1    
    32   17   18 1    
    33   17   47 1    
    34   17   48 1    
    35   18   19 1    
    36   18   29 1    
    37   19   20 2    
    38   19   21 2    
    39   19   22 1    
    40   22   23 1    
    41   22   49 1    
    42   22   50 1    
    43   23   28 ar   
    44   23   24 ar   
    45   24   25 ar   
    46   24   51 1    
    47   25   26 ar   
    48   25   52 1    
    49   26   27 ar   
    50   26   53 1    
    51   27   28 ar   
    52   27   54 1    
    53   28   55 1    
    54   29   30 1    
    55   29   56 1    
    56   29   57 1    
    57   30   58 1    
    58   30   59 1    
    59   31   60 1    
    60   32   33 1    
    61   33   34 1    
    62   34   35 2    
    63   34   36 1    
@<TRIPOS>SUBSTRUCTURE
     1 UNK         1 GROUP             0       ****    0 ROOT    
