@<TRIPOS>MOLECULE
23467
31   32    1
SMALL
USER_CHARGES


@<TRIPOS>ATOM
      1 C1         38.8521    7.7940   16.4845 C.3       1 UNK         0.0000 
      2 O2         39.1640    9.1368   16.1433 O.3       1 UNK         0.0000 
      3 C3         40.4581    9.5713   16.3352 C.ar      1 UNK         0.0000 
      4 C4         41.4772    8.7481   16.8518 C.ar      1 UNK         0.0000 
      5 C5         42.7760    9.2630   17.0197 C.ar      1 UNK         0.0000 
      6 C6         43.0552   10.5988   16.6723 C.ar      1 UNK         0.0000 
      7 C7         42.0423   11.4358   16.1546 C.ar      1 UNK         0.0000 
      8 C8         42.3308   12.8213   15.7959 C.2       1 UNK         0.0000 
      9 S9         43.3748   13.7665   16.8257 S.3       1 UNK         0.0000 
     10 C10        43.2102   15.1796   15.7984 C.2       1 UNK         0.0000 
     11 C11        43.9500   16.3947   16.2107 C.2       1 UNK         0.0000 
     12 O12        43.8582   17.4209   15.5026 O.co2     1 UNK         0.0000 
     13 O13        44.6456   16.3657   17.2508 O.co2     1 UNK         0.0000 
     14 C14        42.3876   14.9221   14.7244 C.2       1 UNK         0.0000 
     15 O15        42.0603   15.8348   13.7845 O.3       1 UNK         0.0000 
     16 C16        40.8300   16.5041   14.0279 C.3       1 UNK         0.0000 
     17 C17        40.5470   17.5475   12.9448 C.2       1 UNK         0.0000 
     18 O18        41.4120   17.7291   12.0588 O.co2     1 UNK         0.0000 
     19 O19        39.4649   18.1683   13.0342 O.co2     1 UNK         0.0000 
     20 C20        41.9066   13.5794   14.7351 C.2       1 UNK         0.0000 
     21 Br21       40.7855   12.9055   13.3482 Br        1 UNK         0.0000 
     22 C22        40.7422   10.9077   15.9890 C.ar      1 UNK         0.0000 
     23 H23        37.7989    7.6056   16.2764 H         1 UNK         0.0000 
     24 H24        39.4361    7.0866   15.8943 H         1 UNK         0.0000 
     25 H25        39.0174    7.6034   17.5457 H         1 UNK         0.0000 
     26 H26        41.2913    7.7209   17.1261 H         1 UNK         0.0000 
     27 H27        43.5590    8.6323   17.4140 H         1 UNK         0.0000 
     28 H28        44.0580   10.9795   16.7993 H         1 UNK         0.0000 
     29 H29        40.0173   15.7767   14.0510 H         1 UNK         0.0000 
     30 H30        40.8450   17.0109   14.9945 H         1 UNK         0.0000 
     31 H31        39.9464   11.5255   15.5989 H         1 UNK         0.0000 
@<TRIPOS>BOND
     1    1    2 1    
     2    1   23 1    
     3    1   24 1    
     4    1   25 1    
     5    2    3 1    
     6    3   22 ar   
     7    3    4 ar   
     8    4    5 ar   
     9    4   26 1    
    10    5    6 ar   
    11    5   27 1    
    12    6    7 ar   
    13    6   28 1    
    14    7    8 1    
    15    7   22 ar   
    16    8   20 2    
    17    8    9 1    
    18    9   10 1    
    19   10   11 1    
    20   10   14 2    
    21   11   12 2    
    22   11   13 1    
    23   14   15 1    
    24   14   20 1    
    25   15   16 1    
    26   16   17 1    
    27   16   29 1    
    28   16   30 1    
    29   17   18 2    
    30   17   19 1    
    31   20   21 1    
    32   22   31 1    
@<TRIPOS>SUBSTRUCTURE
     1 UNK         1 GROUP             0       ****    0 ROOT    
