@<TRIPOS>MOLECULE
23477
43   45    1
SMALL
USER_CHARGES


@<TRIPOS>ATOM
      1 O1         41.2295   17.5367   11.9444 O.co2     1 UNK         0.0000 
      2 C2         40.3854   17.4296   12.8614 C.2       1 UNK         0.0000 
      3 O3         39.3048   18.0555   12.9318 O.co2     1 UNK         0.0000 
      4 C4         40.7069   16.4569   13.9988 C.3       1 UNK         0.0000 
      5 O5         41.9716   15.8287   13.8015 O.3       1 UNK         0.0000 
      6 C6         42.3248   14.9326   14.7526 C.2       1 UNK         0.0000 
      7 C7         41.8775   13.6145   14.7795 C.2       1 UNK         0.0000 
      8 Br8        40.7150   12.9156   13.4386 Br        1 UNK         0.0000 
      9 C9         42.3473   12.8247   15.8292 C.2       1 UNK         0.0000 
     10 C10        42.0577   11.4350   16.1601 C.ar      1 UNK         0.0000 
     11 C11        43.0417   10.5800   16.6715 C.ar      1 UNK         0.0000 
     12 C12        42.7506    9.2417   16.9424 C.ar      1 UNK         0.0000 
     13 C13        41.4815    8.7321   16.6725 C.ar      1 UNK         0.0000 
     14 C14        40.4829    9.5699   16.1594 C.ar      1 UNK         0.0000 
     15 N15        39.1835    9.1385   15.8446 N.pl3     1 UNK         0.0000 
     16 C16        38.9114    7.7621   15.4291 C.3       1 UNK         0.0000 
     17 C17        37.3829    7.5402   15.3340 C.3       1 UNK         0.0000 
     18 C18        37.0173    6.1412   14.7978 C.3       1 UNK         0.0000 
     19 O19        37.7153    5.8364   13.4582 O.3       1 UNK         0.0000 
     20 C20        39.2402    6.0199   13.5606 C.3       1 UNK         0.0000 
     21 C21        39.6099    7.4194   14.0884 C.3       1 UNK         0.0000 
     22 C22        40.7764   10.9164   15.9496 C.ar      1 UNK         0.0000 
     23 S23        43.4366   13.7822   16.8006 S.3       1 UNK         0.0000 
     24 C24        43.2082   15.1991   15.7938 C.2       1 UNK         0.0000 
     25 C25        43.9621   16.4179   16.1726 C.2       1 UNK         0.0000 
     26 O26        44.7100   16.3742   17.1738 O.co2     1 UNK         0.0000 
     27 O27        43.8292   17.4586   15.4900 O.co2     1 UNK         0.0000 
     28 H28        39.9017   15.7273   14.1010 H         1 UNK         0.0000 
     29 H29        40.7422   17.0094   14.9380 H         1 UNK         0.0000 
     30 H30        44.0401   10.9492   16.8558 H         1 UNK         0.0000 
     31 H31        43.5114    8.5980   17.3587 H         1 UNK         0.0000 
     32 H32        41.2791    7.6877   16.8608 H         1 UNK         0.0000 
     33 H33        38.4027    9.7252   16.1016 H         1 UNK         0.0000 
     34 H34        37.8321    7.6816   15.3000 H         1 UNK         0.0000 
     35 H35        36.9300    7.6611   16.3180 H         1 UNK         0.0000 
     36 H36        36.9314    8.2958   14.6910 H         1 UNK         0.0000 
     37 H37        37.3180    5.3761   15.5136 H         1 UNK         0.0000 
     38 H38        35.9396    6.0447   14.6663 H         1 UNK         0.0000 
     39 H39        39.6441    5.2655   14.2357 H         1 UNK         0.0000 
     40 H40        39.7049    5.8553   12.5885 H         1 UNK         0.0000 
     41 H41        39.3560    8.1607   13.3306 H         1 UNK         0.0000 
     42 H42        40.6918    7.4634   14.2136 H         1 UNK         0.0000 
     43 H43        40.0030   11.5907   15.6162 H         1 UNK         0.0000 
@<TRIPOS>BOND
     1    1    2 2    
     2    2    3 1    
     3    2    4 1    
     4    4    5 1    
     5    4   28 1    
     6    4   29 1    
     7    5    6 1    
     8    6   24 2    
     9    6    7 1    
    10    7    8 1    
    11    7    9 2    
    12    9   10 1    
    13    9   23 1    
    14   10   22 ar   
    15   10   11 ar   
    16   11   12 ar   
    17   11   30 1    
    18   12   13 ar   
    19   12   31 1    
    20   13   14 ar   
    21   13   32 1    
    22   14   15 1    
    23   14   22 ar   
    24   15   16 1    
    25   15   33 1    
    26   16   21 1    
    27   16   17 1    
    28   16   34 1    
    29   17   18 1    
    30   17   35 1    
    31   17   36 1    
    32   18   19 1    
    33   18   37 1    
    34   18   38 1    
    35   19   20 1    
    36   20   21 1    
    37   20   39 1    
    38   20   40 1    
    39   21   41 1    
    40   21   42 1    
    41   22   43 1    
    42   23   24 1    
    43   24   25 1    
    44   25   26 2    
    45   25   27 1    
@<TRIPOS>SUBSTRUCTURE
     1 UNK         1 GROUP             0       ****    0 ROOT    
