@<TRIPOS>MOLECULE
23469
41   43    1
SMALL
USER_CHARGES


@<TRIPOS>ATOM
      1 O1         39.1680   17.5120   12.6949 O.co2     1 UNK         0.0000 
      2 C2         40.3245   17.0339   12.6933 C.2       1 UNK         0.0000 
      3 O3         41.2000   17.2665   11.8308 O.co2     1 UNK         0.0000 
      4 C4         40.7257   16.1090   13.8445 C.3       1 UNK         0.0000 
      5 O5         42.0919   15.7294   13.7437 O.3       1 UNK         0.0000 
      6 C6         42.5145   14.9212   14.7395 C.2       1 UNK         0.0000 
      7 C7         42.1856   13.5746   14.8668 C.2       1 UNK         0.0000 
      8 Br8        41.2053   12.6509   13.5174 Br        1 UNK         0.0000 
      9 C9         42.6245   12.9340   16.0147 C.2       1 UNK         0.0000 
     10 C10        42.3443   11.5877   16.4784 C.ar      1 UNK         0.0000 
     11 C11        43.3652   10.7569   16.9470 C.ar      1 UNK         0.0000 
     12 C12        43.0859    9.4573   17.3660 C.ar      1 UNK         0.0000 
     13 C13        41.7792    8.9724   17.3118 C.ar      1 UNK         0.0000 
     14 C14        40.7401    9.7888   16.8448 C.ar      1 UNK         0.0000 
     15 N15        39.3981    9.3768   16.7741 N.am      1 UNK         0.0000 
     16 C16        38.9977    7.9742   16.7120 C.2       1 UNK         0.0000 
     17 O17        38.6112    7.3065   17.6711 O.2       1 UNK         0.0000 
     18 C18        39.0447    7.4076   15.2989 C.ar      1 UNK         0.0000 
     19 C19        40.2643    7.0598   14.7072 C.ar      1 UNK         0.0000 
     20 C20        40.2940    6.5235   13.4197 C.ar      1 UNK         0.0000 
     21 C21        39.1061    6.3134   12.7236 C.ar      1 UNK         0.0000 
     22 C22        37.8875    6.6562   13.3069 C.ar      1 UNK         0.0000 
     23 C23        37.8553    7.2050   14.5894 C.ar      1 UNK         0.0000 
     24 C24        41.0347   11.0942   16.4477 C.ar      1 UNK         0.0000 
     25 S25        43.6360   14.0254   16.9149 S.3       1 UNK         0.0000 
     26 C26        43.3652   15.3253   15.7666 C.2       1 UNK         0.0000 
     27 C27        44.0484   16.6109   16.0386 C.2       1 UNK         0.0000 
     28 O28        43.8753   17.5608   15.2444 O.co2     1 UNK         0.0000 
     29 O29        44.7768   16.7159   17.0509 O.co2     1 UNK         0.0000 
     30 H30        40.5589   16.6193   14.7942 H         1 UNK         0.0000 
     31 H31        40.0731   15.2344   13.8224 H         1 UNK         0.0000 
     32 H32        44.3829   11.1171   16.9883 H         1 UNK         0.0000 
     33 H33        43.8822    8.8280   17.7354 H         1 UNK         0.0000 
     34 H34        41.5946    7.9649   17.6501 H         1 UNK         0.0000 
     35 H35        38.7229   10.1212   16.6814 H         1 UNK         0.0000 
     36 H36        41.1959    7.1942   15.2378 H         1 UNK         0.0000 
     37 H37        41.2391    6.2673   12.9638 H         1 UNK         0.0000 
     38 H38        39.1282    5.8806   11.7343 H         1 UNK         0.0000 
     39 H39        36.9663    6.4952   12.7665 H         1 UNK         0.0000 
     40 H40        36.9054    7.4761   15.0276 H         1 UNK         0.0000 
     41 H41        40.2344   11.7364   16.1095 H         1 UNK         0.0000 
@<TRIPOS>BOND
     1    1    2 2    
     2    2    3 1    
     3    2    4 1    
     4    4    5 1    
     5    4   30 1    
     6    4   31 1    
     7    5    6 1    
     8    6   26 2    
     9    6    7 1    
    10    7    8 1    
    11    7    9 2    
    12    9   10 1    
    13    9   25 1    
    14   10   24 ar   
    15   10   11 ar   
    16   11   12 ar   
    17   11   32 1    
    18   12   13 ar   
    19   12   33 1    
    20   13   14 ar   
    21   13   34 1    
    22   14   15 1    
    23   14   24 ar   
    24   15   16 am   BACKBONE|DICT|INTERRES
    25   15   35 1    
    26   16   17 2    
    27   16   18 1    
    28   18   23 ar   
    29   18   19 ar   
    30   19   20 ar   
    31   19   36 1    
    32   20   21 ar   
    33   20   37 1    
    34   21   22 ar   
    35   21   38 1    
    36   22   23 ar   
    37   22   39 1    
    38   23   40 1    
    39   24   41 1    
    40   25   26 1    
    41   26   27 1    
    42   27   28 2    
    43   27   29 1    
@<TRIPOS>SUBSTRUCTURE
     1 UNK         1 GROUP             0       ****    0 ROOT    
