@<TRIPOS>MOLECULE
23476
48   50    1
SMALL
USER_CHARGES


@<TRIPOS>ATOM
      1 O1         41.4867   17.7482   12.0673 O.co2     1 UNK         0.0000 
      2 C2         40.5664   17.5761   12.8964 C.2       1 UNK         0.0000 
      3 O3         39.4855   18.2052   12.9246 O.co2     1 UNK         0.0000 
      4 C4         40.7845   16.5110   13.9735 C.3       1 UNK         0.0000 
      5 O5         42.0386   15.8543   13.8050 O.3       1 UNK         0.0000 
      6 C6         42.3405   14.9357   14.7523 C.2       1 UNK         0.0000 
      7 C7         41.9226   13.5730   14.6979 C.2       1 UNK         0.0000 
      8 Br8        40.9097   12.8861   13.2359 Br        1 UNK         0.0000 
      9 C9         42.2783   12.8150   15.7837 C.2       1 UNK         0.0000 
     10 C10        42.0207   11.4118   16.0935 C.ar      1 UNK         0.0000 
     11 C11        43.0285   10.6016   16.6613 C.ar      1 UNK         0.0000 
     12 C12        42.7790    9.2486   16.9615 C.ar      1 UNK         0.0000 
     13 C13        41.5154    8.6893   16.6954 C.ar      1 UNK         0.0000 
     14 C14        40.5019    9.4854   16.1279 C.ar      1 UNK         0.0000 
     15 N15        39.2615    8.8686   15.8845 N.pl3     1 UNK         0.0000 
     16 C16        39.0017    7.4432   15.9074 C.3       1 UNK         0.0000 
     17 C17        37.8800    7.0952   16.9015 C.3       1 UNK         0.0000 
     18 C18        37.8402    5.6235   17.3408 C.3       1 UNK         0.0000 
     19 C19        37.7134    4.6087   16.1910 C.3       1 UNK         0.0000 
     20 C20        39.0143    4.4568   15.3854 C.3       1 UNK         0.0000 
     21 C21        39.2002    5.4613   14.2336 C.3       1 UNK         0.0000 
     22 C22        38.7313    6.9046   14.4928 C.3       1 UNK         0.0000 
     23 C23        40.7562   10.8392   15.8293 C.ar      1 UNK         0.0000 
     24 S24        43.1753   13.7863   16.9220 S.3       1 UNK         0.0000 
     25 C25        43.0446   15.2094   15.9038 C.2       1 UNK         0.0000 
     26 C26        43.6741   16.4501   16.4156 C.2       1 UNK         0.0000 
     27 O27        44.2669   16.4128   17.5159 O.co2     1 UNK         0.0000 
     28 O28        43.6044   17.4989   15.7361 O.co2     1 UNK         0.0000 
     29 H29        39.9941   15.7641   13.8960 H         1 UNK         0.0000 
     30 H30        40.6889   16.9590   14.9642 H         1 UNK         0.0000 
     31 H31        44.0021   11.0173   16.8767 H         1 UNK         0.0000 
     32 H32        43.5573    8.6409   17.3989 H         1 UNK         0.0000 
     33 H33        41.3381    7.6508   16.9346 H         1 UNK         0.0000 
     34 H34        38.4969    9.4598   15.5920 H         1 UNK         0.0000 
     35 H35        39.9194    6.9819   16.2723 H         1 UNK         0.0000 
     36 H36        38.0023    7.7112   17.7924 H         1 UNK         0.0000 
     37 H37        36.9147    7.3799   16.4828 H         1 UNK         0.0000 
     38 H38        38.7221    5.3947   17.9391 H         1 UNK         0.0000 
     39 H39        36.9923    5.4937   18.0133 H         1 UNK         0.0000 
     40 H40        37.4767    3.6403   16.6318 H         1 UNK         0.0000 
     41 H41        36.8729    4.8501   15.5405 H         1 UNK         0.0000 
     42 H42        39.8635    4.5619   16.0606 H         1 UNK         0.0000 
     43 H43        39.0851    3.4400   14.9992 H         1 UNK         0.0000 
     44 H44        40.2534    5.4934   13.9545 H         1 UNK         0.0000 
     45 H45        38.6832    5.0699   13.3574 H         1 UNK         0.0000 
     46 H46        37.6678    6.9895   14.2695 H         1 UNK         0.0000 
     47 H47        39.2244    7.5514   13.7672 H         1 UNK         0.0000 
     48 H48        40.0032   11.4699   15.3891 H         1 UNK         0.0000 
@<TRIPOS>BOND
     1    1    2 2    
     2    2    3 1    
     3    2    4 1    
     4    4    5 1    
     5    4   29 1    
     6    4   30 1    
     7    5    6 1    
     8    6   25 2    
     9    6    7 1    
    10    7    8 1    
    11    7    9 2    
    12    9   10 1    
    13    9   24 1    
    14   10   23 ar   
    15   10   11 ar   
    16   11   12 ar   
    17   11   31 1    
    18   12   13 ar   
    19   12   32 1    
    20   13   14 ar   
    21   13   33 1    
    22   14   15 1    
    23   14   23 ar   
    24   15   16 1    
    25   15   34 1    
    26   16   22 1    
    27   16   17 1    
    28   16   35 1    
    29   17   18 1    
    30   17   36 1    
    31   17   37 1    
    32   18   19 1    
    33   18   38 1    
    34   18   39 1    
    35   19   20 1    
    36   19   40 1    
    37   19   41 1    
    38   20   21 1    
    39   20   42 1    
    40   20   43 1    
    41   21   22 1    
    42   21   44 1    
    43   21   45 1    
    44   22   46 1    
    45   22   47 1    
    46   23   48 1    
    47   24   25 1    
    48   25   26 1    
    49   26   27 2    
    50   26   28 1    
@<TRIPOS>SUBSTRUCTURE
     1 UNK         1 GROUP             0       ****    0 ROOT    
