@<TRIPOS>MOLECULE
23482
50   52    1
SMALL
USER_CHARGES


@<TRIPOS>ATOM
      1 C1         37.0780    3.6786   13.1303 C.3       1 UNK         0.0000 
      2 S2         37.0507    5.4588   12.6717 S.o2      1 UNK         0.0000 
      3 O3         35.6546    5.9158   12.6058 O.2       1 UNK         0.0000 
      4 O4         37.9320    5.6292   11.5065 O.2       1 UNK         0.0000 
      5 N5         37.7104    6.1236   13.8434 N.pl3     1 UNK         0.0000 
      6 C6         36.9746    6.4537   15.0726 C.3       1 UNK         0.0000 
      7 C7         37.3499    7.8627   15.5714 C.3       1 UNK         0.0000 
      8 C8         38.8803    8.0706   15.6816 C.3       1 UNK         0.0000 
      9 N9         39.1733    9.4611   16.0229 N.pl3     1 UNK         0.0000 
     10 C10        40.4943    9.8795   16.2662 C.ar      1 UNK         0.0000 
     11 C11        41.4767    9.0403   16.8075 C.ar      1 UNK         0.0000 
     12 C12        42.7730    9.5138   17.0059 C.ar      1 UNK         0.0000 
     13 C13        43.0991   10.8232   16.6550 C.ar      1 UNK         0.0000 
     14 C14        42.1345   11.6814   16.1187 C.ar      1 UNK         0.0000 
     15 C15        42.4736   13.0428   15.7309 C.2       1 UNK         0.0000 
     16 S16        43.4983   14.0501   16.7177 S.3       1 UNK         0.0000 
     17 C17        43.3217   15.4163   15.6304 C.2       1 UNK         0.0000 
     18 C18        44.0475   16.6549   16.0000 C.2       1 UNK         0.0000 
     19 O19        44.7297   16.6609   17.0479 O.co2     1 UNK         0.0000 
     20 O20        43.9566   17.6625   15.2632 O.co2     1 UNK         0.0000 
     21 C21        42.5067   15.0961   14.5535 C.2       1 UNK         0.0000 
     22 O22        42.1804   15.9554   13.5598 O.3       1 UNK         0.0000 
     23 C23        40.9447   16.6448   13.7339 C.3       1 UNK         0.0000 
     24 C24        40.4718   17.2776   12.4231 C.2       1 UNK         0.0000 
     25 O25        39.2380   17.3278   12.2242 O.co2     1 UNK         0.0000 
     26 O26        41.3522   17.7070   11.6450 O.co2     1 UNK         0.0000 
     27 C27        42.1050   13.7638   14.6029 C.2       1 UNK         0.0000 
     28 Br28       41.1293   12.9991   13.1540 Br        1 UNK         0.0000 
     29 C29        40.8302   11.1974   15.9487 C.ar      1 UNK         0.0000 
     30 C30        39.5890    7.6410   14.3716 C.3       1 UNK         0.0000 
     31 C31        39.1749    6.2318   13.9220 C.3       1 UNK         0.0000 
     32 H32        36.4460    3.5062   13.9999 H         1 UNK         0.0000 
     33 H33        36.7015    3.0894   12.2947 H         1 UNK         0.0000 
     34 H34        38.1011    3.3773   13.3530 H         1 UNK         0.0000 
     35 H35        35.9104    6.3727   14.8514 H         1 UNK         0.0000 
     36 H36        37.1777    5.7010   15.8344 H         1 UNK         0.0000 
     37 H37        36.9229    8.6168   14.9102 H         1 UNK         0.0000 
     38 H38        36.8994    8.0309   16.5496 H         1 UNK         0.0000 
     39 H39        39.3485    7.8874   14.7145 H         1 UNK         0.0000 
     40 H40        38.3818   10.0875   16.0647 H         1 UNK         0.0000 
     41 H41        41.2695    8.0208   17.0833 H         1 UNK         0.0000 
     42 H42        43.5238    8.8638   17.4304 H         1 UNK         0.0000 
     43 H43        44.1117   11.1724   16.7954 H         1 UNK         0.0000 
     44 H44        40.1664   15.9916   14.1324 H         1 UNK         0.0000 
     45 H45        41.0935   17.4322   14.4731 H         1 UNK         0.0000 
     46 H46        40.0667   11.8609   15.5685 H         1 UNK         0.0000 
     47 H47        39.3781    8.3587   13.5789 H         1 UNK         0.0000 
     48 H48        40.6684    7.6671   14.5215 H         1 UNK         0.0000 
     49 H49        39.5623    5.4723   14.6010 H         1 UNK         0.0000 
     50 H50        39.5768    5.9846   12.9394 H         1 UNK         0.0000 
@<TRIPOS>BOND
     1    1    2 1    
     2    1   32 1    
     3    1   33 1    
     4    1   34 1    
     5    2    3 2    
     6    2    4 2    
     7    2    5 1    
     8    5   31 1    
     9    5    6 1    
    10    6    7 1    
    11    6   35 1    
    12    6   36 1    
    13    7    8 1    
    14    7   37 1    
    15    7   38 1    
    16    8    9 1    
    17    8   30 1    
    18    8   39 1    
    19    9   10 1    
    20    9   40 1    
    21   10   29 ar   
    22   10   11 ar   
    23   11   12 ar   
    24   11   41 1    
    25   12   13 ar   
    26   12   42 1    
    27   13   14 ar   
    28   13   43 1    
    29   14   15 1    
    30   14   29 ar   
    31   15   27 2    
    32   15   16 1    
    33   16   17 1    
    34   17   18 1    
    35   17   21 2    
    36   18   19 2    
    37   18   20 1    
    38   21   22 1    
    39   21   27 1    
    40   22   23 1    
    41   23   24 1    
    42   23   44 1    
    43   23   45 1    
    44   24   25 2    
    45   24   26 1    
    46   27   28 1    
    47   29   46 1    
    48   30   31 1    
    49   30   47 1    
    50   30   48 1    
    51   31   49 1    
    52   31   50 1    
@<TRIPOS>SUBSTRUCTURE
     1 UNK         1 GROUP             0       ****    0 ROOT    
