@<TRIPOS>MOLECULE
23468
37   38    1
SMALL
USER_CHARGES


@<TRIPOS>ATOM
      1 C1         37.3038    6.0207   14.7782 C.3       1 UNK         0.0000 
      2 C2         37.5441    7.3857   15.4416 C.3       1 UNK         0.0000 
      3 C3         39.0107    7.6228   15.8168 C.2       1 UNK         0.0000 
      4 O4         39.7628    6.6642   15.9916 O.2       1 UNK         0.0000 
      5 N5         39.3847    8.9129   15.9015 N.am      1 UNK         0.0000 
      6 C6         40.6707    9.4518   16.1790 C.ar      1 UNK         0.0000 
      7 C7         41.6984    8.7040   16.7853 C.ar      1 UNK         0.0000 
      8 C8         42.9338    9.3143   17.0710 C.ar      1 UNK         0.0000 
      9 C9         43.1410   10.6700   16.7518 C.ar      1 UNK         0.0000 
     10 C10        42.1184   11.4322   16.1450 C.ar      1 UNK         0.0000 
     11 C11        42.3322   12.8383   15.8154 C.2       1 UNK         0.0000 
     12 S12        43.1854   13.8565   16.9461 S.3       1 UNK         0.0000 
     13 C13        43.0171   15.2585   15.9044 C.2       1 UNK         0.0000 
     14 C14        43.6041   16.5277   16.3926 C.2       1 UNK         0.0000 
     15 O15        43.5028   17.5484   15.6779 O.co2     1 UNK         0.0000 
     16 O16        44.1829   16.5486   17.5021 O.co2     1 UNK         0.0000 
     17 C17        42.3335   14.9436   14.7511 C.2       1 UNK         0.0000 
     18 O18        42.0634   15.8257   13.7651 O.3       1 UNK         0.0000 
     19 C19        40.9041   16.6162   13.9936 C.3       1 UNK         0.0000 
     20 C20        40.4217   17.2724   12.6981 C.2       1 UNK         0.0000 
     21 O21        41.2809   17.6281   11.8606 O.co2     1 UNK         0.0000 
     22 O22        39.1845   17.3898   12.5564 O.co2     1 UNK         0.0000 
     23 C23        41.9618   13.5670   14.7145 C.2       1 UNK         0.0000 
     24 Br24       40.9942   12.8290   13.2469 Br        1 UNK         0.0000 
     25 C25        40.8826   10.8086   15.8614 C.ar      1 UNK         0.0000 
     26 H26        36.2433    5.8732   14.5739 H         1 UNK         0.0000 
     27 H27        37.8350    5.9382   13.8292 H         1 UNK         0.0000 
     28 H28        37.6330    5.2034   15.4210 H         1 UNK         0.0000 
     29 H29        37.2252    8.1837   14.7705 H         1 UNK         0.0000 
     30 H30        36.9244    7.4622   16.3363 H         1 UNK         0.0000 
     31 H31        38.6703    9.5922   15.6841 H         1 UNK         0.0000 
     32 H32        41.5611    7.6677   17.0526 H         1 UNK         0.0000 
     33 H33        43.7203    8.7432   17.5419 H         1 UNK         0.0000 
     34 H34        44.0904   11.1286   16.9871 H         1 UNK         0.0000 
     35 H35        40.0889   16.0102   14.3930 H         1 UNK         0.0000 
     36 H36        41.1295   17.3893   14.7294 H         1 UNK         0.0000 
     37 H37        40.0924   11.3709   15.3855 H         1 UNK         0.0000 
@<TRIPOS>BOND
     1    1    2 1    
     2    1   26 1    
     3    1   27 1    
     4    1   28 1    
     5    2    3 1    
     6    2   29 1    
     7    2   30 1    
     8    3    4 2    
     9    3    5 am   BACKBONE|DICT|INTERRES
    10    5    6 1    
    11    5   31 1    
    12    6   25 ar   
    13    6    7 ar   
    14    7    8 ar   
    15    7   32 1    
    16    8    9 ar   
    17    8   33 1    
    18    9   10 ar   
    19    9   34 1    
    20   10   11 1    
    21   10   25 ar   
    22   11   23 2    
    23   11   12 1    
    24   12   13 1    
    25   13   14 1    
    26   13   17 2    
    27   14   15 2    
    28   14   16 1    
    29   17   18 1    
    30   17   23 1    
    31   18   19 1    
    32   19   20 1    
    33   19   35 1    
    34   19   36 1    
    35   20   21 2    
    36   20   22 1    
    37   23   24 1    
    38   25   37 1    
@<TRIPOS>SUBSTRUCTURE
     1 UNK         1 GROUP             0       ****    0 ROOT    
