@<TRIPOS>MOLECULE
CHEMBL3265030_n
52   57    1
SMALL
USER_CHARGES


@<TRIPOS>ATOM
      1 C1         -6.0443   -4.4602   16.2962 C.3       1 UNK         0.0000 
      2 C2         -5.6240   -3.4001   15.2728 C.3       1 UNK         0.0000 
      3 O3         -6.7329   -2.9884   14.5080 O.3       1 UNK         0.0000 
      4 C4         -4.7833   -2.2666   15.8350 C.3       1 UNK         0.0000 
      5 N5         -3.8370   -2.3937   14.7064 N.pl3     1 UNK         0.0000 
      6 C6         -4.3873   -3.7457   14.4627 C.3       1 UNK         0.0000 
      7 C7         -2.4739   -2.0989   14.7890 C.ar      1 UNK         0.0000 
      8 C8         -1.8935   -1.0737   14.0433 C.ar      1 UNK         0.0000 
      9 C9         -0.5352   -0.8073   14.1963 C.ar      1 UNK         0.0000 
     10 C10         0.2332   -1.5617   15.0991 C.ar      1 UNK         0.0000 
     11 N11         1.5948   -1.3216   15.3436 N.pl3     1 UNK         0.0000 
     12 C12         2.5323   -0.4320   14.7835 C.ar      1 UNK         0.0000 
     13 N13         2.1832    0.3856   13.7527 N.2       1 UNK         0.0000 
     14 C14         3.0997    1.2392   13.2138 C.ar      1 UNK         0.0000 
     15 C15         4.4085    1.2886   13.6971 C.ar      1 UNK         0.0000 
     16 N16         4.7393    0.4966   14.7557 N.pl3     1 UNK         0.0000 
     17 C17         5.8912    0.3843   15.4874 C.ar      1 UNK         0.0000 
     18 C18         5.6000   -0.5403   16.4969 C.ar      1 UNK         0.0000 
     19 N19         4.3900   -1.0499   16.3863 N.2       1 UNK         0.0000 
     20 C20         3.8285   -0.3910   15.3363 C.ar      1 UNK         0.0000 
     21 C21         2.6272    2.1508   12.1213 C.ar      1 UNK         0.0000 
     22 C22         3.5370    2.6346   11.1631 C.ar      1 UNK         0.0000 
     23 C23         3.1492    3.4622   10.1085 C.ar      1 UNK         0.0000 
     24 C24         1.8011    3.8208   10.0156 C.ar      1 UNK         0.0000 
     25 C25         0.9990    4.5979    9.1271 C.ar      1 UNK         0.0000 
     26 N26        -0.2497    4.6170    9.5128 N.2       1 UNK         0.0000 
     27 N27        -0.3315    3.8838   10.6343 N.pl3     1 UNK         0.0000 
     28 C28         0.8874    3.3527   10.9946 C.ar      1 UNK         0.0000 
     29 C29         1.2729    2.5247   12.0514 C.ar      1 UNK         0.0000 
     30 C30        -0.3672   -2.5916   15.8262 C.ar      1 UNK         0.0000 
     31 C31        -1.7168   -2.8552   15.6739 C.ar      1 UNK         0.0000 
     32 H32        -5.2050   -4.7984   16.9035 H         1 UNK         0.0000 
     33 H33        -6.8054   -4.0661   16.9698 H         1 UNK         0.0000 
     34 H34        -6.4675   -5.3321   15.7974 H         1 UNK         0.0000 
     35 H35        -6.4046   -2.3323   13.8881 H         1 UNK         0.0000 
     36 H36        -4.3284   -2.4863   16.8029 H         1 UNK         0.0000 
     37 H37        -5.2892   -1.3024   15.8976 H         1 UNK         0.0000 
     38 H38        -4.5733   -3.9761   13.4129 H         1 UNK         0.0000 
     39 H39        -3.7850   -4.5482   14.8924 H         1 UNK         0.0000 
     40 H40        -2.4933   -0.4925   13.3604 H         1 UNK         0.0000 
     41 H41        -0.1177   -0.0073   13.6132 H         1 UNK         0.0000 
     42 H42         2.0095   -1.8739   16.0815 H         1 UNK         0.0000 
     43 H43         5.1692    1.9645   13.3454 H         1 UNK         0.0000 
     44 H44         6.7768    0.9622   15.2769 H         1 UNK         0.0000 
     45 H45         6.2732   -0.8674   17.2818 H         1 UNK         0.0000 
     46 H46         4.5724    2.3319   11.2116 H         1 UNK         0.0000 
     47 H47         3.8628    3.8049    9.3741 H         1 UNK         0.0000 
     48 H48         1.3157    5.1254    8.2407 H         1 UNK         0.0000 
     49 H49        -1.2162    3.7634   11.1025 H         1 UNK         0.0000 
     50 H50         0.5632    2.1669   12.7820 H         1 UNK         0.0000 
     51 H51         0.2126   -3.1777   16.5228 H         1 UNK         0.0000 
     52 H52        -2.1693   -3.6422   16.2570 H         1 UNK         0.0000 
@<TRIPOS>BOND
     1    1    2 1    
     2    1   32 1    
     3    1   33 1    
     4    1   34 1    
     5    2    3 1    
     6    2    4 1    
     7    2    6 1    
     8    3   35 1    
     9    4    5 1    
    10    4   36 1    
    11    4   37 1    
    12    5    6 1    
    13    5    7 1    
    14    6   38 1    
    15    6   39 1    
    16    7    8 ar   
    17    7   31 ar   
    18    8    9 ar   
    19    8   40 1    
    20    9   10 ar   
    21    9   41 1    
    22   10   11 1    
    23   10   30 ar   
    24   11   12 1    
    25   11   42 1    
    26   12   13 ar   
    27   12   20 ar   
    28   13   14 ar   
    29   14   15 ar   
    30   14   21 1    
    31   15   16 ar   
    32   15   43 1    
    33   16   17 ar   
    34   16   20 ar   
    35   17   18 ar   
    36   17   44 1    
    37   18   19 ar   
    38   18   45 1    
    39   19   20 ar   
    40   21   22 ar   
    41   21   29 ar   
    42   22   23 ar   
    43   22   46 1    
    44   23   24 ar   
    45   23   47 1    
    46   24   25 ar   
    47   24   28 ar   
    48   25   26 ar   
    49   25   48 1    
    50   26   27 ar   
    51   27   28 ar   
    52   27   49 1    
    53   28   29 ar   
    54   29   50 1    
    55   30   31 ar   
    56   30   51 1    
    57   31   52 1    
@<TRIPOS>SUBSTRUCTURE
     1 UNK         1 GROUP             0       ****    0 ROOT    
