@<TRIPOS>MOLECULE
CHEMBL3259820
48   51    1
SMALL
USER_CHARGES


@<TRIPOS>ATOM
      1 C1         -4.2559   -3.1060   13.5669 C.3       1 UNK         0.0000 
      2 O2         -3.8726   -2.3561   14.7087 O.3       1 UNK         0.0000 
      3 C3         -2.5261   -2.1090   14.8139 C.ar      1 UNK         0.0000 
      4 C4         -1.7497   -2.8677   15.6812 C.ar      1 UNK         0.0000 
      5 C5         -0.3968   -2.6084   15.8204 C.ar      1 UNK         0.0000 
      6 C6          0.2208   -1.5821   15.0957 C.ar      1 UNK         0.0000 
      7 N7          1.6029   -1.3570   15.3324 N.pl3     1 UNK         0.0000 
      8 C8          2.5301   -0.4418   14.7814 C.ar      1 UNK         0.0000 
      9 N9          2.1713    0.3833   13.7481 N.2       1 UNK         0.0000 
     10 C10         3.1089    1.2308   13.2274 C.ar      1 UNK         0.0000 
     11 C11         4.4101    1.2783   13.7032 C.ar      1 UNK         0.0000 
     12 N12         4.7426    0.4910   14.7676 N.pl3     1 UNK         0.0000 
     13 C13         5.8953    0.3872   15.4836 C.ar      1 UNK         0.0000 
     14 C14         5.5954   -0.5343   16.5177 C.ar      1 UNK         0.0000 
     15 N15         4.3825   -1.0512   16.3664 N.2       1 UNK         0.0000 
     16 C16         3.8364   -0.4021   15.3289 C.ar      1 UNK         0.0000 
     17 C17         2.6465    2.1385   12.1256 C.ar      1 UNK         0.0000 
     18 C18         3.5557    2.6368   11.1745 C.ar      1 UNK         0.0000 
     19 C19         3.1190    3.4676   10.1463 C.ar      1 UNK         0.0000 
     20 C20         1.7635    3.8248   10.0594 C.ar      1 UNK         0.0000 
     21 C21         0.8615    3.3448   11.0110 C.ar      1 UNK         0.0000 
     22 C22         1.2990    2.5127   12.0324 C.ar      1 UNK         0.0000 
     23 C23         1.2918    4.7293    8.9608 C.2       1 UNK         0.0000 
     24 O24         2.0878    5.3456    8.2497 O.2       1 UNK         0.0000 
     25 N25        -0.0320    4.8143    8.7824 N.am      1 UNK         0.0000 
     26 C26        -0.5541   -0.8144   14.1977 C.ar      1 UNK         0.0000 
     27 C27        -1.9430   -1.0833   14.0624 C.ar      1 UNK         0.0000 
     28 O28        -2.7475   -0.3431   13.2088 O.3       1 UNK         0.0000 
     29 C29        -2.2164    0.6551   12.3579 C.3       1 UNK         0.0000 
     30 H30        -5.3366   -3.2485   13.5818 H         1 UNK         0.0000 
     31 H31        -3.7903   -4.0925   13.5604 H         1 UNK         0.0000 
     32 H32        -4.0039   -2.5877   12.6407 H         1 UNK         0.0000 
     33 H33        -2.2037   -3.6575   16.2628 H         1 UNK         0.0000 
     34 H34         0.1911   -3.2025   16.5100 H         1 UNK         0.0000 
     35 H35         1.9934   -1.9421   16.0553 H         1 UNK         0.0000 
     36 H36         5.1714    1.9452   13.3228 H         1 UNK         0.0000 
     37 H37         6.7795    0.9683   15.2756 H         1 UNK         0.0000 
     38 H38         6.2400   -0.8202   17.3279 H         1 UNK         0.0000 
     39 H39         4.5974    2.3606   11.2253 H         1 UNK         0.0000 
     40 H40         3.8290    3.8282    9.4160 H         1 UNK         0.0000 
     41 H41        -0.1777    3.6239   10.9656 H         1 UNK         0.0000 
     42 H42         0.5906    2.1614   12.7684 H         1 UNK         0.0000 
     43 H43        -0.4213    5.3894    8.0510 H         1 UNK         0.0000 
     44 H44        -0.6482    4.2950    9.3843 H         1 UNK         0.0000 
     45 H45        -0.1068   -0.0259   13.6327 H         1 UNK         0.0000 
     46 H46        -3.0358    1.0794   11.7746 H         1 UNK         0.0000 
     47 H47        -1.4924    0.2406   11.6554 H         1 UNK         0.0000 
     48 H48        -1.7680    1.4642   12.9342 H         1 UNK         0.0000 
@<TRIPOS>BOND
     1    1    2 1    
     2    1   30 1    
     3    1   31 1    
     4    1   32 1    
     5    2    3 1    
     6    3    4 ar   
     7    3   27 ar   
     8    4    5 ar   
     9    4   33 1    
    10    5    6 ar   
    11    5   34 1    
    12    6    7 1    
    13    6   26 ar   
    14    7    8 1    
    15    7   35 1    
    16    8    9 ar   
    17    8   16 ar   
    18    9   10 ar   
    19   10   11 ar   
    20   10   17 1    
    21   11   12 ar   
    22   11   36 1    
    23   12   13 ar   
    24   12   16 ar   
    25   13   14 ar   
    26   13   37 1    
    27   14   15 ar   
    28   14   38 1    
    29   15   16 ar   
    30   17   18 ar   
    31   17   22 ar   
    32   18   19 ar   
    33   18   39 1    
    34   19   20 ar   
    35   19   40 1    
    36   20   21 ar   
    37   20   23 1    
    38   21   22 ar   
    39   21   41 1    
    40   22   42 1    
    41   23   24 2    
    42   23   25 am   BACKBONE|DICT|INTERRES
    43   25   43 1    
    44   25   44 1    
    45   26   27 ar   
    46   26   45 1    
    47   27   28 1    
    48   28   29 1    
    49   29   46 1    
    50   29   47 1    
    51   29   48 1    
@<TRIPOS>SUBSTRUCTURE
     1 UNK         1 GROUP             0       ****    0 ROOT    
