@<TRIPOS>MOLECULE
CHEMBL3265037
56   61    1
SMALL
USER_CHARGES


@<TRIPOS>ATOM
      1 C1         -2.1744    0.6943   12.3856 C.3       1 UNK         0.0000 
      2 O2         -2.7023   -0.3474   13.1823 O.3       1 UNK         0.0000 
      3 C3         -1.9098   -1.0981   14.0384 C.ar      1 UNK         0.0000 
      4 C4         -0.5310   -0.8294   14.1803 C.ar      1 UNK         0.0000 
      5 C5          0.2355   -1.5834   15.0946 C.ar      1 UNK         0.0000 
      6 N6          1.6117   -1.3596   15.3361 N.pl3     1 UNK         0.0000 
      7 C7          2.5319   -0.4372   14.7774 C.ar      1 UNK         0.0000 
      8 N8          2.1598    0.3941   13.7549 N.2       1 UNK         0.0000 
      9 C9          3.0944    1.2396   13.2243 C.ar      1 UNK         0.0000 
     10 C10         4.4043    1.2833   13.6944 C.ar      1 UNK         0.0000 
     11 N11         4.7385    0.4947   14.7556 N.pl3     1 UNK         0.0000 
     12 C12         5.8973    0.3913   15.4817 C.ar      1 UNK         0.0000 
     13 C13         5.5996   -0.5416   16.5121 C.ar      1 UNK         0.0000 
     14 N14         4.3864   -1.0493   16.3602 N.2       1 UNK         0.0000 
     15 C15         3.8356   -0.3858   15.3271 C.ar      1 UNK         0.0000 
     16 C16         2.6225    2.1542   12.1213 C.ar      1 UNK         0.0000 
     17 C17         3.5396    2.6409   11.1644 C.ar      1 UNK         0.0000 
     18 C18         3.1535    3.4630   10.1051 C.ar      1 UNK         0.0000 
     19 C19         1.8086    3.8199   10.0132 C.ar      1 UNK         0.0000 
     20 C20         0.9978    4.6054    9.1182 C.ar      1 UNK         0.0000 
     21 N21        -0.2423    4.6093    9.5224 N.2       1 UNK         0.0000 
     22 N22        -0.3299    3.8832   10.6368 N.pl3     1 UNK         0.0000 
     23 C23         0.8842    3.3496   10.9964 C.ar      1 UNK         0.0000 
     24 C24         1.2618    2.5164   12.0586 C.ar      1 UNK         0.0000 
     25 C25        -0.3784   -2.5892   15.8339 C.ar      1 UNK         0.0000 
     26 C26        -1.7343   -2.8306   15.7168 C.ar      1 UNK         0.0000 
     27 C27        -2.5117   -2.0982   14.8261 C.ar      1 UNK         0.0000 
     28 N28        -3.8736   -2.3467   14.7445 N.pl3     1 UNK         0.0000 
     29 C29        -4.6489   -2.3804   13.4950 C.3       1 UNK         0.0000 
     30 C30        -5.4028   -3.7252   13.3613 C.3       1 UNK         0.0000 
     31 O31        -6.2201   -3.9495   14.5061 O.3       1 UNK         0.0000 
     32 C32        -5.4732   -4.0046   15.7182 C.3       1 UNK         0.0000 
     33 C33        -4.7007   -2.7060   15.8980 C.3       1 UNK         0.0000 
     34 H34        -2.9904    1.1363   11.8091 H         1 UNK         0.0000 
     35 H35        -1.4428    0.2907   11.6870 H         1 UNK         0.0000 
     36 H36        -1.7364    1.4787   13.0041 H         1 UNK         0.0000 
     37 H37        -0.0893   -0.0406   13.6077 H         1 UNK         0.0000 
     38 H38         2.0034   -1.9475   16.0618 H         1 UNK         0.0000 
     39 H39         5.1625    1.9521   13.3194 H         1 UNK         0.0000 
     40 H40         6.7773    0.9830   15.2753 H         1 UNK         0.0000 
     41 H41         6.2437   -0.8354   17.3270 H         1 UNK         0.0000 
     42 H42         4.5739    2.3509   11.2352 H         1 UNK         0.0000 
     43 H43         3.8782    3.8039    9.3734 H         1 UNK         0.0000 
     44 H44         1.3039    5.1373    8.2326 H         1 UNK         0.0000 
     45 H45        -1.2154    3.7754   11.1065 H         1 UNK         0.0000 
     46 H46         0.5533    2.1677   12.8004 H         1 UNK         0.0000 
     47 H47         0.2091   -3.1801   16.5238 H         1 UNK         0.0000 
     48 H48        -2.1890   -3.6122   16.3096 H         1 UNK         0.0000 
     49 H49        -5.3854   -1.6032   13.4697 H         1 UNK         0.0000 
     50 H50        -4.0001   -2.2760   12.6217 H         1 UNK         0.0000 
     51 H51        -6.0319   -3.7256   12.4721 H         1 UNK         0.0000 
     52 H52        -4.6910   -4.5475   13.2566 H         1 UNK         0.0000 
     53 H53        -6.1314   -4.1557   16.5745 H         1 UNK         0.0000 
     54 H54        -4.7486   -4.8187   15.6925 H         1 UNK         0.0000 
     55 H55        -5.3882   -1.8709   16.0634 H         1 UNK         0.0000 
     56 H56        -4.1072   -2.7162   16.8113 H         1 UNK         0.0000 
@<TRIPOS>BOND
     1    1    2 1    
     2    1   34 1    
     3    1   35 1    
     4    1   36 1    
     5    2    3 1    
     6    3    4 ar   
     7    3   27 ar   
     8    4    5 ar   
     9    4   37 1    
    10    5    6 1    
    11    5   25 ar   
    12    6    7 1    
    13    6   38 1    
    14    7    8 ar   
    15    7   15 ar   
    16    8    9 ar   
    17    9   10 ar   
    18    9   16 1    
    19   10   11 ar   
    20   10   39 1    
    21   11   12 ar   
    22   11   15 ar   
    23   12   13 ar   
    24   12   40 1    
    25   13   14 ar   
    26   13   41 1    
    27   14   15 ar   
    28   16   17 ar   
    29   16   24 ar   
    30   17   18 ar   
    31   17   42 1    
    32   18   19 ar   
    33   18   43 1    
    34   19   20 ar   
    35   19   23 ar   
    36   20   21 ar   
    37   20   44 1    
    38   21   22 ar   
    39   22   23 ar   
    40   22   45 1    
    41   23   24 ar   
    42   24   46 1    
    43   25   26 ar   
    44   25   47 1    
    45   26   27 ar   
    46   26   48 1    
    47   27   28 1    
    48   28   29 1    
    49   28   33 1    
    50   29   30 1    
    51   29   49 1    
    52   29   50 1    
    53   30   31 1    
    54   30   51 1    
    55   30   52 1    
    56   31   32 1    
    57   32   33 1    
    58   32   53 1    
    59   32   54 1    
    60   33   55 1    
    61   33   56 1    
@<TRIPOS>SUBSTRUCTURE
     1 UNK         1 GROUP             0       ****    0 ROOT    
