@<TRIPOS>MOLECULE
CHEMBL3265020
48   52    1
SMALL
USER_CHARGES


@<TRIPOS>ATOM
      1 C1         -4.2567   -3.1041   13.5694 C.3       1 UNK         0.0000 
      2 O2         -3.8737   -2.3598   14.7157 O.3       1 UNK         0.0000 
      3 C3         -2.5259   -2.1106   14.8172 C.ar      1 UNK         0.0000 
      4 C4         -1.7455   -2.8698   15.6821 C.ar      1 UNK         0.0000 
      5 C5         -0.3904   -2.6103   15.8138 C.ar      1 UNK         0.0000 
      6 C6          0.2204   -1.5845   15.0865 C.ar      1 UNK         0.0000 
      7 N7          1.6043   -1.3599   15.3203 N.pl3     1 UNK         0.0000 
      8 C8          2.5377   -0.4463   14.7588 C.ar      1 UNK         0.0000 
      9 N9          2.1842    0.3709   13.7215 N.2       1 UNK         0.0000 
     10 C10         3.1172    1.2388   13.2173 C.ar      1 UNK         0.0000 
     11 C11         4.4204    1.2848   13.7037 C.ar      1 UNK         0.0000 
     12 N12         4.7469    0.4890   14.7614 N.pl3     1 UNK         0.0000 
     13 C13         5.8976    0.3763   15.4868 C.ar      1 UNK         0.0000 
     14 C14         5.5864   -0.5217   16.5304 C.ar      1 UNK         0.0000 
     15 N15         4.3754   -1.0422   16.3738 N.2       1 UNK         0.0000 
     16 C16         3.8369   -0.3917   15.3265 C.ar      1 UNK         0.0000 
     17 C17         2.6436    2.1633   12.1173 C.ar      1 UNK         0.0000 
     18 C18         3.5480    2.6409   11.1599 C.ar      1 UNK         0.0000 
     19 C19         3.1566    3.4683   10.0981 C.ar      1 UNK         0.0000 
     20 C20         1.8094    3.8079   10.0262 C.ar      1 UNK         0.0000 
     21 N21         1.1129    4.5678    9.1158 N.pl3     1 UNK         0.0000 
     22 C22        -0.1959    4.6369    9.4439 C.ar      1 UNK         0.0000 
     23 C23        -0.4233    3.9255   10.6079 C.ar      1 UNK         0.0000 
     24 C24         0.8581    3.3610   11.0052 C.ar      1 UNK         0.0000 
     25 C25         1.2923    2.5453   12.0556 C.ar      1 UNK         0.0000 
     26 C26        -0.5553   -0.8190   14.1924 C.ar      1 UNK         0.0000 
     27 C27        -1.9451   -1.0886   14.0616 C.ar      1 UNK         0.0000 
     28 O28        -2.7542   -0.3572   13.2046 O.3       1 UNK         0.0000 
     29 C29        -2.2337    0.6443   12.3523 C.3       1 UNK         0.0000 
     30 H30        -5.3357   -3.2522   13.5867 H         1 UNK         0.0000 
     31 H31        -3.7894   -4.0896   13.5592 H         1 UNK         0.0000 
     32 H32        -4.0126   -2.5803   12.6439 H         1 UNK         0.0000 
     33 H33        -2.1924   -3.6626   16.2629 H         1 UNK         0.0000 
     34 H34         0.1988   -3.2075   16.4976 H         1 UNK         0.0000 
     35 H35         1.9903   -1.9328   16.0524 H         1 UNK         0.0000 
     36 H36         5.1821    1.9636   13.3436 H         1 UNK         0.0000 
     37 H37         6.7861    0.9459   15.2758 H         1 UNK         0.0000 
     38 H38         6.2270   -0.7893   17.3529 H         1 UNK         0.0000 
     39 H39         4.5880    2.3439   11.2255 H         1 UNK         0.0000 
     40 H40         3.8575    3.8116    9.3742 H         1 UNK         0.0000 
     41 H41         1.4893    5.0309    8.2959 H         1 UNK         0.0000 
     42 H42        -0.8811    5.2047    8.8100 H         1 UNK         0.0000 
     43 H43        -1.3687    3.8093   11.1106 H         1 UNK         0.0000 
     44 H44         0.6011    2.2181   12.8040 H         1 UNK         0.0000 
     45 H45        -0.1076   -0.0335   13.6255 H         1 UNK         0.0000 
     46 H46        -3.0510    1.0731   11.7700 H         1 UNK         0.0000 
     47 H47        -1.5106    0.2345   11.6499 H         1 UNK         0.0000 
     48 H48        -1.7825    1.4496   12.9275 H         1 UNK         0.0000 
@<TRIPOS>BOND
     1    1    2 1    
     2    1   30 1    
     3    1   31 1    
     4    1   32 1    
     5    2    3 1    
     6    3    4 ar   
     7    3   27 ar   
     8    4    5 ar   
     9    4   33 1    
    10    5    6 ar   
    11    5   34 1    
    12    6    7 1    
    13    6   26 ar   
    14    7    8 1    
    15    7   35 1    
    16    8    9 ar   
    17    8   16 ar   
    18    9   10 ar   
    19   10   11 ar   
    20   10   17 1    
    21   11   12 ar   
    22   11   36 1    
    23   12   13 ar   
    24   12   16 ar   
    25   13   14 ar   
    26   13   37 1    
    27   14   15 ar   
    28   14   38 1    
    29   15   16 ar   
    30   17   18 ar   
    31   17   25 ar   
    32   18   19 ar   
    33   18   39 1    
    34   19   20 ar   
    35   19   40 1    
    36   20   21 ar   
    37   20   24 ar   
    38   21   22 ar   
    39   21   41 1    
    40   22   23 ar   
    41   22   42 1    
    42   23   24 ar   
    43   23   43 1    
    44   24   25 ar   
    45   25   44 1    
    46   26   27 ar   
    47   26   45 1    
    48   27   28 1    
    49   28   29 1    
    50   29   46 1    
    51   29   47 1    
    52   29   48 1    
@<TRIPOS>SUBSTRUCTURE
     1 UNK         1 GROUP             0       ****    0 ROOT    
