@<TRIPOS>MOLECULE
CHEMBL3265019
46   50    1
SMALL
USER_CHARGES


@<TRIPOS>ATOM
      1 C1         -4.2567   -3.1043   13.5693 C.3       1 UNK         0.0000 
      2 O2         -3.8736   -2.3605   14.7157 O.3       1 UNK         0.0000 
      3 C3         -2.5257   -2.1110   14.8169 C.ar      1 UNK         0.0000 
      4 C4         -1.7458   -2.8699   15.6818 C.ar      1 UNK         0.0000 
      5 C5         -0.3904   -2.6103   15.8137 C.ar      1 UNK         0.0000 
      6 C6          0.2206   -1.5847   15.0868 C.ar      1 UNK         0.0000 
      7 N7          1.6037   -1.3593   15.3213 N.pl3     1 UNK         0.0000 
      8 C8          2.5361   -0.4486   14.7616 C.ar      1 UNK         0.0000 
      9 N9          2.1814    0.3735   13.7239 N.2       1 UNK         0.0000 
     10 C10         3.1138    1.2388   13.2174 C.ar      1 UNK         0.0000 
     11 C11         4.4183    1.2844   13.7022 C.ar      1 UNK         0.0000 
     12 N12         4.7470    0.4870   14.7610 N.pl3     1 UNK         0.0000 
     13 C13         5.8980    0.3781   15.4861 C.ar      1 UNK         0.0000 
     14 C14         5.5879   -0.5236   16.5289 C.ar      1 UNK         0.0000 
     15 N15         4.3760   -1.0435   16.3736 N.2       1 UNK         0.0000 
     16 C16         3.8368   -0.3913   15.3236 C.ar      1 UNK         0.0000 
     17 C17         2.6373    2.1616   12.1208 C.ar      1 UNK         0.0000 
     18 C18         1.3117    2.6428   12.1323 C.ar      1 UNK         0.0000 
     19 C19         0.8392    3.5282   11.1613 C.ar      1 UNK         0.0000 
     20 C20         1.7204    3.9285   10.1646 C.ar      1 UNK         0.0000 
     21 N21         1.5424    4.7860    9.1151 N.2       1 UNK         0.0000 
     22 N22         2.7143    4.8525    8.3999 N.2       1 UNK         0.0000 
     23 N23         3.5904    4.0382    9.0000 N.pl3     1 UNK         0.0000 
     24 C24         3.0324    3.4382   10.1221 C.ar      1 UNK         0.0000 
     25 C25         3.5249    2.5426   11.0797 C.ar      1 UNK         0.0000 
     26 C26        -0.5551   -0.8189   14.1919 C.ar      1 UNK         0.0000 
     27 C27        -1.9443   -1.0883   14.0612 C.ar      1 UNK         0.0000 
     28 O28        -2.7530   -0.3558   13.2052 O.3       1 UNK         0.0000 
     29 C29        -2.2324    0.6450   12.3520 C.3       1 UNK         0.0000 
     30 H30        -5.3358   -3.2523   13.5866 H         1 UNK         0.0000 
     31 H31        -3.7890   -4.0896   13.5590 H         1 UNK         0.0000 
     32 H32        -4.0124   -2.5807   12.6437 H         1 UNK         0.0000 
     33 H33        -2.1941   -3.6622   16.2628 H         1 UNK         0.0000 
     34 H34         0.1988   -3.2066   16.4982 H         1 UNK         0.0000 
     35 H35         1.9911   -1.9346   16.0533 H         1 UNK         0.0000 
     36 H36         5.1807    1.9631   13.3423 H         1 UNK         0.0000 
     37 H37         6.7854    0.9491   15.2761 H         1 UNK         0.0000 
     38 H38         6.2290   -0.7940   17.3521 H         1 UNK         0.0000 
     39 H39         0.6437    2.3379   12.9285 H         1 UNK         0.0000 
     40 H40        -0.1664    3.8943   11.1902 H         1 UNK         0.0000 
     41 H41         4.5235    3.9296    8.6264 H         1 UNK         0.0000 
     42 H42         4.5235    2.1590   11.0319 H         1 UNK         0.0000 
     43 H43        -0.1083   -0.0321   13.6247 H         1 UNK         0.0000 
     44 H44        -3.0506    1.0729   11.7701 H         1 UNK         0.0000 
     45 H45        -1.5096    0.2343   11.6496 H         1 UNK         0.0000 
     46 H46        -1.7818    1.4502   12.9278 H         1 UNK         0.0000 
@<TRIPOS>BOND
     1    1    2 1    
     2    1   30 1    
     3    1   31 1    
     4    1   32 1    
     5    2    3 1    
     6    3    4 ar   
     7    3   27 ar   
     8    4    5 ar   
     9    4   33 1    
    10    5    6 ar   
    11    5   34 1    
    12    6    7 1    
    13    6   26 ar   
    14    7    8 1    
    15    7   35 1    
    16    8    9 ar   
    17    8   16 ar   
    18    9   10 ar   
    19   10   11 ar   
    20   10   17 1    
    21   11   12 ar   
    22   11   36 1    
    23   12   13 ar   
    24   12   16 ar   
    25   13   14 ar   
    26   13   37 1    
    27   14   15 ar   
    28   14   38 1    
    29   15   16 ar   
    30   17   18 ar   
    31   17   25 ar   
    32   18   19 ar   
    33   18   39 1    
    34   19   20 ar   
    35   19   40 1    
    36   20   21 ar   
    37   20   24 ar   
    38   21   22 ar   
    39   22   23 ar   
    40   23   24 ar   
    41   23   41 1    
    42   24   25 ar   
    43   25   42 1    
    44   26   27 ar   
    45   26   43 1    
    46   27   28 1    
    47   28   29 1    
    48   29   44 1    
    49   29   45 1    
    50   29   46 1    
@<TRIPOS>SUBSTRUCTURE
     1 UNK         1 GROUP             0       ****    0 ROOT    
