@<TRIPOS>MOLECULE
CHEMBL3264995
60   64    1
SMALL
USER_CHARGES


@<TRIPOS>ATOM
      1 C1         -4.2563   -3.1062   13.5664 C.3       1 UNK         0.0000 
      2 O2         -3.8728   -2.3593   14.7106 O.3       1 UNK         0.0000 
      3 C3         -2.5249   -2.1101   14.8131 C.ar      1 UNK         0.0000 
      4 C4         -1.7501   -2.8737   15.6749 C.ar      1 UNK         0.0000 
      5 C5         -0.3910   -2.6176   15.8092 C.ar      1 UNK         0.0000 
      6 C6          0.2227   -1.5905   15.0869 C.ar      1 UNK         0.0000 
      7 N7          1.6077   -1.3711   15.3228 N.pl3     1 UNK         0.0000 
      8 C8          2.5318   -0.4406   14.7752 C.ar      1 UNK         0.0000 
      9 N9          2.1656    0.3957   13.7562 N.2       1 UNK         0.0000 
     10 C10         3.1117    1.2369   13.2296 C.ar      1 UNK         0.0000 
     11 C11         4.4129    1.2745   13.7026 C.ar      1 UNK         0.0000 
     12 N12         4.7445    0.4891   14.7604 N.pl3     1 UNK         0.0000 
     13 C13         5.8979    0.3839   15.4837 C.ar      1 UNK         0.0000 
     14 C14         5.5998   -0.5411   16.5157 C.ar      1 UNK         0.0000 
     15 N15         4.3864   -1.0537   16.3628 N.2       1 UNK         0.0000 
     16 C16         3.8368   -0.3920   15.3291 C.ar      1 UNK         0.0000 
     17 C17         2.6550    2.1423   12.1326 C.ar      1 UNK         0.0000 
     18 C18         3.5650    2.6308   11.1723 C.ar      1 UNK         0.0000 
     19 C19         3.1221    3.4386   10.1249 C.ar      1 UNK         0.0000 
     20 C20         1.7757    3.7777   10.0261 C.ar      1 UNK         0.0000 
     21 C21         0.8680    3.3392   10.9975 C.ar      1 UNK         0.0000 
     22 C22         1.3092    2.5240   12.0437 C.ar      1 UNK         0.0000 
     23 C23        -0.5769    3.7618   10.9126 C.2       1 UNK         0.0000 
     24 O24        -1.1111    3.9318    9.8164 O.2       1 UNK         0.0000 
     25 N25        -1.1792    4.0031   12.1232 N.am      1 UNK         0.0000 
     26 C26        -2.4941    4.5708   12.2428 C.ar      1 UNK         0.0000 
     27 C27        -3.4732    4.3742   11.2553 C.ar      1 UNK         0.0000 
     28 C28        -4.7281    4.9504   11.3975 C.ar      1 UNK         0.0000 
     29 C29        -5.0306    5.7263   12.5247 C.ar      1 UNK         0.0000 
     30 C30        -4.0556    5.9172   13.5169 C.ar      1 UNK         0.0000 
     31 C31        -2.7906    5.3372   13.3771 C.ar      1 UNK         0.0000 
     32 C32        -6.3945    6.3441   12.6680 C.2       1 UNK         0.0000 
     33 O33        -7.2177    6.1258   11.7478 O.co2     1 UNK         0.0000 
     34 O34        -6.6066    7.0283   13.6967 O.co2     1 UNK         0.0000 
     35 C35        -0.5540   -0.8141   14.1957 C.ar      1 UNK         0.0000 
     36 C36        -1.9401   -1.0806   14.0641 C.ar      1 UNK         0.0000 
     37 O37        -2.7443   -0.3364   13.2160 O.3       1 UNK         0.0000 
     38 C38        -2.2132    0.6462   12.3458 C.3       1 UNK         0.0000 
     39 H39        -5.3361   -3.2549   13.5857 H         1 UNK         0.0000 
     40 H40        -3.7839   -4.0892   13.5560 H         1 UNK         0.0000 
     41 H41        -4.0102   -2.5844   12.6405 H         1 UNK         0.0000 
     42 H42        -2.2076   -3.6642   16.2534 H         1 UNK         0.0000 
     43 H43         0.1980   -3.2129   16.4943 H         1 UNK         0.0000 
     44 H44         2.0049   -1.9718   16.0350 H         1 UNK         0.0000 
     45 H45         5.1749    1.9434   13.3291 H         1 UNK         0.0000 
     46 H46         6.7778    0.9747   15.2766 H         1 UNK         0.0000 
     47 H47         6.2427   -0.8274   17.3331 H         1 UNK         0.0000 
     48 H48         4.6093    2.3606   11.2287 H         1 UNK         0.0000 
     49 H49         3.8254    3.8001    9.3864 H         1 UNK         0.0000 
     50 H50         1.4370    4.4087    9.2133 H         1 UNK         0.0000 
     51 H51         0.6084    2.1782   12.7883 H         1 UNK         0.0000 
     52 H52        -0.6284    3.9274   12.9685 H         1 UNK         0.0000 
     53 H53        -3.2732    3.7726   10.3909 H         1 UNK         0.0000 
     54 H54        -5.4737    4.7957   10.6329 H         1 UNK         0.0000 
     55 H55        -4.2825    6.5166   14.3929 H         1 UNK         0.0000 
     56 H56        -2.0386    5.4914   14.1417 H         1 UNK         0.0000 
     57 H57        -0.1130   -0.0178   13.6310 H         1 UNK         0.0000 
     58 H58        -3.0333    1.0720   11.7646 H         1 UNK         0.0000 
     59 H59        -1.4951    0.2209   11.6444 H         1 UNK         0.0000 
     60 H60        -1.7591    1.4508   12.9195 H         1 UNK         0.0000 
@<TRIPOS>BOND
     1    1    2 1    
     2    1   39 1    
     3    1   40 1    
     4    1   41 1    
     5    2    3 1    
     6    3    4 ar   
     7    3   36 ar   
     8    4    5 ar   
     9    4   42 1    
    10    5    6 ar   
    11    5   43 1    
    12    6    7 1    
    13    6   35 ar   
    14    7    8 1    
    15    7   44 1    
    16    8    9 ar   
    17    8   16 ar   
    18    9   10 ar   
    19   10   11 ar   
    20   10   17 1    
    21   11   12 ar   
    22   11   45 1    
    23   12   13 ar   
    24   12   16 ar   
    25   13   14 ar   
    26   13   46 1    
    27   14   15 ar   
    28   14   47 1    
    29   15   16 ar   
    30   17   18 ar   
    31   17   22 ar   
    32   18   19 ar   
    33   18   48 1    
    34   19   20 ar   
    35   19   49 1    
    36   20   21 ar   
    37   20   50 1    
    38   21   22 ar   
    39   21   23 1    
    40   22   51 1    
    41   23   24 2    
    42   23   25 am   BACKBONE|DICT|INTERRES
    43   25   26 1    
    44   25   52 1    
    45   26   27 ar   
    46   26   31 ar   
    47   27   28 ar   
    48   27   53 1    
    49   28   29 ar   
    50   28   54 1    
    51   29   30 ar   
    52   29   32 1    
    53   30   31 ar   
    54   30   55 1    
    55   31   56 1    
    56   32   33 2    
    57   32   34 1    
    58   35   36 ar   
    59   35   57 1    
    60   36   37 1    
    61   37   38 1    
    62   38   58 1    
    63   38   59 1    
    64   38   60 1    
@<TRIPOS>SUBSTRUCTURE
     1 UNK         1 GROUP             0       ****    0 ROOT    
