@<TRIPOS>MOLECULE
CHEMBL3265029
43   47    1
SMALL
USER_CHARGES


@<TRIPOS>ATOM
      1 C1         -4.2507   -3.1011   13.5632 C.3       1 UNK         0.0000 
      2 O2         -3.8673   -2.3305   14.6902 O.3       1 UNK         0.0000 
      3 C3         -2.5168   -2.0957   14.8067 C.ar      1 UNK         0.0000 
      4 C4         -1.9172   -1.0702   14.0633 C.ar      1 UNK         0.0000 
      5 C5         -0.5491   -0.8101   14.2065 C.ar      1 UNK         0.0000 
      6 C6          0.2199   -1.5870   15.0928 C.ar      1 UNK         0.0000 
      7 N7          1.6080   -1.3729   15.3230 N.pl3     1 UNK         0.0000 
      8 C8          2.5324   -0.4358   14.7759 C.ar      1 UNK         0.0000 
      9 N9          2.1663    0.3860   13.7470 N.2       1 UNK         0.0000 
     10 C10         3.0989    1.2355   13.2241 C.ar      1 UNK         0.0000 
     11 C11         4.4088    1.2797   13.7018 C.ar      1 UNK         0.0000 
     12 N12         4.7449    0.4891   14.7567 N.pl3     1 UNK         0.0000 
     13 C13         5.8960    0.3776   15.4790 C.ar      1 UNK         0.0000 
     14 C14         5.5960   -0.5292   16.5069 C.ar      1 UNK         0.0000 
     15 N15         4.3874   -1.0583   16.3532 N.2       1 UNK         0.0000 
     16 C16         3.8346   -0.3857   15.3305 C.ar      1 UNK         0.0000 
     17 C17         2.6263    2.1555   12.1187 C.ar      1 UNK         0.0000 
     18 C18         3.5439    2.6382   11.1639 C.ar      1 UNK         0.0000 
     19 C19         3.1468    3.4593   10.1107 C.ar      1 UNK         0.0000 
     20 C20         1.8029    3.8136   10.0160 C.ar      1 UNK         0.0000 
     21 C21         0.9932    4.6001    9.1195 C.ar      1 UNK         0.0000 
     22 N22        -0.2428    4.6141    9.5158 N.2       1 UNK         0.0000 
     23 N23        -0.3351    3.8865   10.6250 N.pl3     1 UNK         0.0000 
     24 C24         0.8815    3.3478   10.9920 C.ar      1 UNK         0.0000 
     25 C25         1.2640    2.5243   12.0473 C.ar      1 UNK         0.0000 
     26 C26        -0.3962   -2.6164   15.8132 C.ar      1 UNK         0.0000 
     27 C27        -1.7505   -2.8679   15.6748 C.ar      1 UNK         0.0000 
     28 H28        -5.3298   -3.2473   13.5826 H         1 UNK         0.0000 
     29 H29        -3.7850   -4.0873   13.5638 H         1 UNK         0.0000 
     30 H30        -4.0025   -2.5878   12.6346 H         1 UNK         0.0000 
     31 H31        -2.5171   -0.4778   13.3832 H         1 UNK         0.0000 
     32 H32        -0.1065   -0.0198   13.6433 H         1 UNK         0.0000 
     33 H33         2.0019   -1.9714   16.0327 H         1 UNK         0.0000 
     34 H34         5.1639    1.9590   13.3284 H         1 UNK         0.0000 
     35 H35         6.7685    0.9695   15.2724 H         1 UNK         0.0000 
     36 H36         6.2504   -0.7908   17.3182 H         1 UNK         0.0000 
     37 H37         4.5902    2.3441   11.2391 H         1 UNK         0.0000 
     38 H38         3.8565    3.8021    9.3952 H         1 UNK         0.0000 
     39 H39         1.2988    5.1235    8.2486 H         1 UNK         0.0000 
     40 H40        -1.2242    3.7838   11.0912 H         1 UNK         0.0000 
     41 H41         0.5635    2.1916   12.7791 H         1 UNK         0.0000 
     42 H42         0.1890   -3.2156   16.4997 H         1 UNK         0.0000 
     43 H43        -2.2053   -3.6566   16.2497 H         1 UNK         0.0000 
@<TRIPOS>BOND
     1    1    2 1    
     2    1   28 1    
     3    1   29 1    
     4    1   30 1    
     5    2    3 1    
     6    3    4 ar   
     7    3   27 ar   
     8    4    5 ar   
     9    4   31 1    
    10    5    6 ar   
    11    5   32 1    
    12    6    7 1    
    13    6   26 ar   
    14    7    8 1    
    15    7   33 1    
    16    8    9 ar   
    17    8   16 ar   
    18    9   10 ar   
    19   10   11 ar   
    20   10   17 1    
    21   11   12 ar   
    22   11   34 1    
    23   12   13 ar   
    24   12   16 ar   
    25   13   14 ar   
    26   13   35 1    
    27   14   15 ar   
    28   14   36 1    
    29   15   16 ar   
    30   17   18 ar   
    31   17   25 ar   
    32   18   19 ar   
    33   18   37 1    
    34   19   20 ar   
    35   19   38 1    
    36   20   21 ar   
    37   20   24 ar   
    38   21   22 ar   
    39   21   39 1    
    40   22   23 ar   
    41   23   24 ar   
    42   23   40 1    
    43   24   25 ar   
    44   25   41 1    
    45   26   27 ar   
    46   26   42 1    
    47   27   43 1    
@<TRIPOS>SUBSTRUCTURE
     1 UNK         1 GROUP             0       ****    0 ROOT    
