@<TRIPOS>MOLECULE
CHEMBL3265010
52   55    1
SMALL
USER_CHARGES


@<TRIPOS>ATOM
      1 C1         -4.2561   -3.1063   13.5675 C.3       1 UNK         0.0000 
      2 O2         -3.8710   -2.3586   14.7108 O.3       1 UNK         0.0000 
      3 C3         -2.5237   -2.1120   14.8115 C.ar      1 UNK         0.0000 
      4 C4         -1.7479   -2.8731   15.6758 C.ar      1 UNK         0.0000 
      5 C5         -0.3907   -2.6159   15.8114 C.ar      1 UNK         0.0000 
      6 C6          0.2188   -1.5872   15.0906 C.ar      1 UNK         0.0000 
      7 N7          1.6061   -1.3639   15.3275 N.pl3     1 UNK         0.0000 
      8 C8          2.5365   -0.4468   14.7698 C.ar      1 UNK         0.0000 
      9 N9          2.1734    0.3862   13.7543 N.2       1 UNK         0.0000 
     10 C10         3.1090    1.2399   13.2318 C.ar      1 UNK         0.0000 
     11 C11         4.4091    1.2828   13.7040 C.ar      1 UNK         0.0000 
     12 N12         4.7384    0.4983   14.7655 N.pl3     1 UNK         0.0000 
     13 C13         5.8943    0.3897   15.4869 C.ar      1 UNK         0.0000 
     14 C14         5.5998   -0.5422   16.5164 C.ar      1 UNK         0.0000 
     15 N15         4.3902   -1.0596   16.3683 N.2       1 UNK         0.0000 
     16 C16         3.8368   -0.3957   15.3337 C.ar      1 UNK         0.0000 
     17 C17         2.6487    2.1497   12.1257 C.ar      1 UNK         0.0000 
     18 C18         3.5566    2.6396   11.1692 C.ar      1 UNK         0.0000 
     19 C19         3.1227    3.4570   10.1283 C.ar      1 UNK         0.0000 
     20 C20         1.7703    3.8176   10.0234 C.ar      1 UNK         0.0000 
     21 O21         1.3292    4.6020    8.9846 O.3       1 UNK         0.0000 
     22 C22         2.1136    5.6875    8.5183 C.3       1 UNK         0.0000 
     23 C23         0.8614    3.3613   10.9917 C.ar      1 UNK         0.0000 
     24 C24         1.3049    2.5285   12.0328 C.ar      1 UNK         0.0000 
     25 C25        -0.6146    3.7607   10.8922 C.2       1 UNK         0.0000 
     26 O26        -1.0753    4.3040    9.8978 O.2       1 UNK         0.0000 
     27 N27        -1.3527    3.4740   11.9629 N.am      1 UNK         0.0000 
     28 C28        -0.5555   -0.8165   14.1949 C.ar      1 UNK         0.0000 
     29 C29        -1.9469   -1.0910   14.0631 C.ar      1 UNK         0.0000 
     30 O30        -2.7598   -0.3552   13.2170 O.3       1 UNK         0.0000 
     31 C31        -2.2311    0.6451   12.3776 C.3       1 UNK         0.0000 
     32 H32        -5.3364   -3.2553   13.5856 H         1 UNK         0.0000 
     33 H33        -3.7839   -4.0901   13.5556 H         1 UNK         0.0000 
     34 H34        -4.0101   -2.5845   12.6407 H         1 UNK         0.0000 
     35 H35        -2.2034   -3.6660   16.2562 H         1 UNK         0.0000 
     36 H36         0.1971   -3.2189   16.4942 H         1 UNK         0.0000 
     37 H37         2.0037   -1.9659   16.0267 H         1 UNK         0.0000 
     38 H38         5.1760    1.9362   13.3182 H         1 UNK         0.0000 
     39 H39         6.7838    0.9709   15.2741 H         1 UNK         0.0000 
     40 H40         6.2446   -0.8293   17.3211 H         1 UNK         0.0000 
     41 H41         4.6039    2.3672   11.2287 H         1 UNK         0.0000 
     42 H42         3.8363    3.8116    9.4024 H         1 UNK         0.0000 
     43 H43         1.5354    6.2089    7.7566 H         1 UNK         0.0000 
     44 H44         3.0460    5.3492    8.0564 H         1 UNK         0.0000 
     45 H45         2.3213    6.4278    9.2942 H         1 UNK         0.0000 
     46 H46         0.6057    2.1603   12.7711 H         1 UNK         0.0000 
     47 H47        -2.3373    3.7022   11.9713 H         1 UNK         0.0000 
     48 H48        -0.9395    3.0411   12.7709 H         1 UNK         0.0000 
     49 H49        -0.1099   -0.0241   13.6351 H         1 UNK         0.0000 
     50 H50        -3.0414    1.0912   11.7946 H         1 UNK         0.0000 
     51 H51        -1.4766    0.2728   11.6770 H         1 UNK         0.0000 
     52 H52        -1.8063    1.4100   13.0251 H         1 UNK         0.0000 
@<TRIPOS>BOND
     1    1    2 1    
     2    1   32 1    
     3    1   33 1    
     4    1   34 1    
     5    2    3 1    
     6    3    4 ar   
     7    3   29 ar   
     8    4    5 ar   
     9    4   35 1    
    10    5    6 ar   
    11    5   36 1    
    12    6    7 1    
    13    6   28 ar   
    14    7    8 1    
    15    7   37 1    
    16    8    9 ar   
    17    8   16 ar   
    18    9   10 ar   
    19   10   11 ar   
    20   10   17 1    
    21   11   12 ar   
    22   11   38 1    
    23   12   13 ar   
    24   12   16 ar   
    25   13   14 ar   
    26   13   39 1    
    27   14   15 ar   
    28   14   40 1    
    29   15   16 ar   
    30   17   18 ar   
    31   17   24 ar   
    32   18   19 ar   
    33   18   41 1    
    34   19   20 ar   
    35   19   42 1    
    36   20   21 1    
    37   20   23 ar   
    38   21   22 1    
    39   22   43 1    
    40   22   44 1    
    41   22   45 1    
    42   23   24 ar   
    43   23   25 1    
    44   24   46 1    
    45   25   26 2    
    46   25   27 am   BACKBONE|DICT|INTERRES
    47   27   47 1    
    48   27   48 1    
    49   28   29 ar   
    50   28   49 1    
    51   29   30 1    
    52   30   31 1    
    53   31   50 1    
    54   31   51 1    
    55   31   52 1    
@<TRIPOS>SUBSTRUCTURE
     1 UNK         1 GROUP             0       ****    0 ROOT    
