@<TRIPOS>MOLECULE
CHEMBL3265014
52   55    1
SMALL
USER_CHARGES


@<TRIPOS>ATOM
      1 C1         -4.2555   -3.1029   13.5707 C.3       1 UNK         0.0000 
      2 O2         -3.8740   -2.3535   14.7166 O.3       1 UNK         0.0000 
      3 C3         -2.5261   -2.1057   14.8053 C.ar      1 UNK         0.0000 
      4 C4         -1.7497   -2.8673   15.6804 C.ar      1 UNK         0.0000 
      5 C5         -0.3863   -2.6106   15.8150 C.ar      1 UNK         0.0000 
      6 C6          0.2220   -1.5829   15.0890 C.ar      1 UNK         0.0000 
      7 N7          1.5930   -1.3491   15.3060 N.pl3     1 UNK         0.0000 
      8 C8          2.5452   -0.4689   14.7536 C.ar      1 UNK         0.0000 
      9 N9          2.2178    0.3551   13.7190 N.2       1 UNK         0.0000 
     10 C10         3.1227    1.2406   13.2181 C.ar      1 UNK         0.0000 
     11 C11         4.4207    1.3039   13.7175 C.ar      1 UNK         0.0000 
     12 N12         4.7482    0.4921   14.7654 N.pl3     1 UNK         0.0000 
     13 C13         5.8898    0.3836   15.5035 C.ar      1 UNK         0.0000 
     14 C14         5.5715   -0.5089   16.5177 C.ar      1 UNK         0.0000 
     15 N15         4.3818   -1.0543   16.3920 N.2       1 UNK         0.0000 
     16 C16         3.8330   -0.4170   15.3252 C.ar      1 UNK         0.0000 
     17 C17         2.6564    2.1560   12.1340 C.ar      1 UNK         0.0000 
     18 C18         3.5566    2.6280   11.1666 C.ar      1 UNK         0.0000 
     19 C19         3.1294    3.4499   10.1277 C.ar      1 UNK         0.0000 
     20 C20         1.7879    3.8078   10.0318 C.ar      1 UNK         0.0000 
     21 C21         1.3279    4.6787    8.9005 C.2       1 UNK         0.0000 
     22 O22         0.1733    5.0540    8.7192 O.2       1 UNK         0.0000 
     23 N23         2.3332    5.0113    8.0903 N.am      1 UNK         0.0000 
     24 C24         0.8660    3.3707   10.9895 C.ar      1 UNK         0.0000 
     25 O25        -0.4627    3.7335   10.9031 O.3       1 UNK         0.0000 
     26 C26        -1.2689    3.2382   11.9077 C.3       1 UNK         0.0000 
     27 C27         1.3140    2.5576   12.0419 C.ar      1 UNK         0.0000 
     28 C28        -0.5664   -0.8256   14.2115 C.ar      1 UNK         0.0000 
     29 C29        -1.9389   -1.0760   14.0580 C.ar      1 UNK         0.0000 
     30 O30        -2.6991   -0.3052   13.2022 O.3       1 UNK         0.0000 
     31 C31        -2.0020    0.6747   12.5251 C.3       1 UNK         0.0000 
     32 H32        -5.3281   -3.2944   13.5971 H         1 UNK         0.0000 
     33 H33        -3.7409   -4.0644   13.5414 H         1 UNK         0.0000 
     34 H34        -4.0324   -2.5598   12.6514 H         1 UNK         0.0000 
     35 H35        -2.2100   -3.6528   16.2607 H         1 UNK         0.0000 
     36 H36         0.1910   -3.2101   16.5030 H         1 UNK         0.0000 
     37 H37         2.0247   -1.8856   16.0476 H         1 UNK         0.0000 
     38 H38         5.1702    2.0029   13.3720 H         1 UNK         0.0000 
     39 H39         6.7655    0.9739   15.2896 H         1 UNK         0.0000 
     40 H40         6.2092   -0.8329   17.3299 H         1 UNK         0.0000 
     41 H41         4.5935    2.3311   11.2005 H         1 UNK         0.0000 
     42 H42         3.8342    3.7941    9.3846 H         1 UNK         0.0000 
     43 H43         2.2554    5.5897    7.2660 H         1 UNK         0.0000 
     44 H44         3.2955    4.7255    8.2018 H         1 UNK         0.0000 
     45 H45        -2.2930    3.5778   11.7524 H         1 UNK         0.0000 
     46 H46        -0.9095    3.5968   12.8721 H         1 UNK         0.0000 
     47 H47        -1.2412    2.1486   11.8919 H         1 UNK         0.0000 
     48 H48         0.6053    2.2127   12.7810 H         1 UNK         0.0000 
     49 H49        -0.1548   -0.0169   13.6336 H         1 UNK         0.0000 
     50 H50        -2.6852    1.2257   11.8788 H         1 UNK         0.0000 
     51 H51        -1.2219    0.2131   11.9198 H         1 UNK         0.0000 
     52 H52        -1.5485    1.3591   13.2420 H         1 UNK         0.0000 
@<TRIPOS>BOND
     1    1    2 1    
     2    1   32 1    
     3    1   33 1    
     4    1   34 1    
     5    2    3 1    
     6    3    4 ar   
     7    3   29 ar   
     8    4    5 ar   
     9    4   35 1    
    10    5    6 ar   
    11    5   36 1    
    12    6    7 1    
    13    6   28 ar   
    14    7    8 1    
    15    7   37 1    
    16    8    9 ar   
    17    8   16 ar   
    18    9   10 ar   
    19   10   11 ar   
    20   10   17 1    
    21   11   12 ar   
    22   11   38 1    
    23   12   13 ar   
    24   12   16 ar   
    25   13   14 ar   
    26   13   39 1    
    27   14   15 ar   
    28   14   40 1    
    29   15   16 ar   
    30   17   18 ar   
    31   17   27 ar   
    32   18   19 ar   
    33   18   41 1    
    34   19   20 ar   
    35   19   42 1    
    36   20   21 1    
    37   20   24 ar   
    38   21   22 2    
    39   21   23 am   BACKBONE|DICT|INTERRES
    40   23   43 1    
    41   23   44 1    
    42   24   25 1    
    43   24   27 ar   
    44   25   26 1    
    45   26   45 1    
    46   26   46 1    
    47   26   47 1    
    48   27   48 1    
    49   28   29 ar   
    50   28   49 1    
    51   29   30 1    
    52   30   31 1    
    53   31   50 1    
    54   31   51 1    
    55   31   52 1    
@<TRIPOS>SUBSTRUCTURE
     1 UNK         1 GROUP             0       ****    0 ROOT    
