@<TRIPOS>MOLECULE
CHEMBL3265000
67   71    1
SMALL
USER_CHARGES


@<TRIPOS>ATOM
      1 C1         -4.2555   -3.1029   13.5707 C.3       1 UNK         0.0000 
      2 O2         -3.8740   -2.3535   14.7166 O.3       1 UNK         0.0000 
      3 C3         -2.5261   -2.1057   14.8053 C.ar      1 UNK         0.0000 
      4 C4         -1.7497   -2.8673   15.6804 C.ar      1 UNK         0.0000 
      5 C5         -0.3863   -2.6106   15.8150 C.ar      1 UNK         0.0000 
      6 C6          0.2220   -1.5829   15.0890 C.ar      1 UNK         0.0000 
      7 N7          1.5930   -1.3491   15.3060 N.pl3     1 UNK         0.0000 
      8 C8          2.5452   -0.4689   14.7536 C.ar      1 UNK         0.0000 
      9 N9          2.2178    0.3551   13.7190 N.2       1 UNK         0.0000 
     10 C10         3.1227    1.2406   13.2181 C.ar      1 UNK         0.0000 
     11 C11         4.4207    1.3039   13.7175 C.ar      1 UNK         0.0000 
     12 N12         4.7482    0.4921   14.7654 N.pl3     1 UNK         0.0000 
     13 C13         5.8898    0.3836   15.5035 C.ar      1 UNK         0.0000 
     14 C14         5.5715   -0.5089   16.5177 C.ar      1 UNK         0.0000 
     15 N15         4.3818   -1.0543   16.3920 N.2       1 UNK         0.0000 
     16 C16         3.8330   -0.4170   15.3252 C.ar      1 UNK         0.0000 
     17 C17         2.6564    2.1560   12.1340 C.ar      1 UNK         0.0000 
     18 C18         3.5566    2.6280   11.1666 C.ar      1 UNK         0.0000 
     19 C19         3.1294    3.4499   10.1277 C.ar      1 UNK         0.0000 
     20 C20         1.7879    3.8078   10.0318 C.ar      1 UNK         0.0000 
     21 C21         0.8660    3.3707   10.9895 C.ar      1 UNK         0.0000 
     22 C22         1.3140    2.5576   12.0419 C.ar      1 UNK         0.0000 
     23 C23        -0.5783    3.7648   10.8956 C.2       1 UNK         0.0000 
     24 O24        -1.2780    3.6594    9.8925 O.2       1 UNK         0.0000 
     25 N25        -1.0343    4.2553   12.0485 N.am      1 UNK         0.0000 
     26 C26        -2.3943    4.7285   12.2897 C.ar      1 UNK         0.0000 
     27 C27        -2.6544    5.5820   13.3553 C.ar      1 UNK         0.0000 
     28 C28        -3.9490    6.0325   13.5849 C.ar      1 UNK         0.0000 
     29 C29        -4.9835    5.6294   12.7489 C.ar      1 UNK         0.0000 
     30 C30        -4.7235    4.7759   11.6833 C.ar      1 UNK         0.0000 
     31 C31        -3.4289    4.3254   11.4537 C.ar      1 UNK         0.0000 
     32 C32        -6.3808    6.1155   12.9967 C.2       1 UNK         0.0000 
     33 O33        -7.3335    5.7936   12.2928 O.2       1 UNK         0.0000 
     34 N34        -6.3969    6.9226   14.0705 N.2       1 UNK         0.0000 
     35 S35        -7.9316    7.5992   14.5333 S.o2      1 UNK         0.0000 
     36 O36        -8.7871    6.4947   14.9809 O.2       1 UNK         0.0000 
     37 O37        -8.3522    8.5161   13.4681 O.2       1 UNK         0.0000 
     38 C38        -7.5285    8.5816   15.9619 C.3       1 UNK         0.0000 
     39 C39        -0.5664   -0.8256   14.2115 C.ar      1 UNK         0.0000 
     40 C40        -1.9389   -1.0760   14.0580 C.ar      1 UNK         0.0000 
     41 O41        -2.6991   -0.3052   13.2021 O.3       1 UNK         0.0000 
     42 C42        -2.0020    0.6746   12.5251 C.3       1 UNK         0.0000 
     43 H43        -3.7528   -4.0708   13.5508 H         1 UNK         0.0000 
     44 H44        -4.0179   -2.5675   12.6505 H         1 UNK         0.0000 
     45 H45        -5.3306   -3.2808   13.5889 H         1 UNK         0.0000 
     46 H46        -2.2100   -3.6528   16.2607 H         1 UNK         0.0000 
     47 H47         0.1911   -3.2101   16.5029 H         1 UNK         0.0000 
     48 H48         2.0246   -1.8858   16.0475 H         1 UNK         0.0000 
     49 H49         5.1701    2.0030   13.3719 H         1 UNK         0.0000 
     50 H50         6.7656    0.9739   15.2897 H         1 UNK         0.0000 
     51 H51         6.2089   -0.8330   17.3301 H         1 UNK         0.0000 
     52 H52         4.5934    2.3309   11.2002 H         1 UNK         0.0000 
     53 H53         3.8342    3.7939    9.3845 H         1 UNK         0.0000 
     54 H54         1.4564    4.4350    9.2166 H         1 UNK         0.0000 
     55 H55         0.6053    2.2130   12.7811 H         1 UNK         0.0000 
     56 H56        -0.4948    4.3595   12.8959 H         1 UNK         0.0000 
     57 H57        -1.8489    5.8959   14.0061 H         1 UNK         0.0000 
     58 H58        -4.1515    6.6970   14.4145 H         1 UNK         0.0000 
     59 H59        -5.5289    4.4620   11.0325 H         1 UNK         0.0000 
     60 H60        -3.2264    3.6609   10.6241 H         1 UNK         0.0000 
     61 H61        -8.4319    9.0596   16.3408 H         1 UNK         0.0000 
     62 H62        -6.8023    9.3456   15.6843 H         1 UNK         0.0000 
     63 H63        -7.1045    7.9412   16.7353 H         1 UNK         0.0000 
     64 H64        -0.1547   -0.0168   13.6337 H         1 UNK         0.0000 
     65 H65        -2.6851    1.2257   11.8787 H         1 UNK         0.0000 
     66 H66        -1.2218    0.2131   11.9198 H         1 UNK         0.0000 
     67 H67        -1.5485    1.3591   13.2420 H         1 UNK         0.0000 
@<TRIPOS>BOND
     1    1    2 1    
     2    1   43 1    
     3    1   44 1    
     4    1   45 1    
     5    2    3 1    
     6    3    4 ar   
     7    3   40 ar   
     8    4    5 ar   
     9    4   46 1    
    10    5    6 ar   
    11    5   47 1    
    12    6    7 1    
    13    6   39 ar   
    14    7    8 1    
    15    7   48 1    
    16    8    9 ar   
    17    8   16 ar   
    18    9   10 ar   
    19   10   11 ar   
    20   10   17 1    
    21   11   12 ar   
    22   11   49 1    
    23   12   13 ar   
    24   12   16 ar   
    25   13   14 ar   
    26   13   50 1    
    27   14   15 ar   
    28   14   51 1    
    29   15   16 ar   
    30   17   18 ar   
    31   17   22 ar   
    32   18   19 ar   
    33   18   52 1    
    34   19   20 ar   
    35   19   53 1    
    36   20   21 ar   
    37   20   54 1    
    38   21   22 ar   
    39   21   23 1    
    40   22   55 1    
    41   23   24 2    
    42   23   25 am   BACKBONE|DICT|INTERRES
    43   25   26 1    
    44   25   56 1    
    45   26   27 ar   
    46   26   31 ar   
    47   27   28 ar   
    48   27   57 1    
    49   28   29 ar   
    50   28   58 1    
    51   29   30 ar   
    52   29   32 1    
    53   30   31 ar   
    54   30   59 1    
    55   31   60 1    
    56   32   33 2    
    57   32   34 1    
    58   34   35 1    
    59   35   36 2    
    60   35   37 2    
    61   35   38 1    
    62   38   61 1    
    63   38   62 1    
    64   38   63 1    
    65   39   40 ar   
    66   39   64 1    
    67   40   41 1    
    68   41   42 1    
    69   42   65 1    
    70   42   66 1    
    71   42   67 1    
@<TRIPOS>SUBSTRUCTURE
     1 UNK         1 GROUP             0       ****    0 ROOT    
