@<TRIPOS>MOLECULE
CHEMBL3265021
47   51    1
SMALL
USER_CHARGES


@<TRIPOS>ATOM
      1 C1         -4.2567   -3.1041   13.5694 C.3       1 UNK         0.0000 
      2 O2         -3.8737   -2.3599   14.7156 O.3       1 UNK         0.0000 
      3 C3         -2.5258   -2.1107   14.8171 C.ar      1 UNK         0.0000 
      4 C4         -1.7454   -2.8698   15.6820 C.ar      1 UNK         0.0000 
      5 C5         -0.3904   -2.6103   15.8138 C.ar      1 UNK         0.0000 
      6 C6          0.2204   -1.5845   15.0865 C.ar      1 UNK         0.0000 
      7 N7          1.6042   -1.3599   15.3206 N.pl3     1 UNK         0.0000 
      8 C8          2.5373   -0.4464   14.7592 C.ar      1 UNK         0.0000 
      9 N9          2.1833    0.3714   13.7220 N.2       1 UNK         0.0000 
     10 C10         3.1157    1.2390   13.2179 C.ar      1 UNK         0.0000 
     11 C11         4.4197    1.2848   13.7036 C.ar      1 UNK         0.0000 
     12 N12         4.7466    0.4890   14.7613 N.pl3     1 UNK         0.0000 
     13 C13         5.8976    0.3767   15.4867 C.ar      1 UNK         0.0000 
     14 C14         5.5868   -0.5220   16.5302 C.ar      1 UNK         0.0000 
     15 N15         4.3755   -1.0422   16.3738 N.2       1 UNK         0.0000 
     16 C16         3.8369   -0.3923   15.3263 C.ar      1 UNK         0.0000 
     17 C17         2.6420    2.1628   12.1182 C.ar      1 UNK         0.0000 
     18 C18         3.5476    2.6405   11.1603 C.ar      1 UNK         0.0000 
     19 C19         3.1538    3.4680   10.0985 C.ar      1 UNK         0.0000 
     20 C20         1.8053    3.8044   10.0318 C.ar      1 UNK         0.0000 
     21 N21         1.0883    4.5643    9.1320 N.pl3     1 UNK         0.0000 
     22 N22        -0.2025    4.6328    9.4561 N.2       1 UNK         0.0000 
     23 C23        -0.3779    3.9489   10.5598 C.ar      1 UNK         0.0000 
     24 C24         0.8670    3.3654   10.9941 C.ar      1 UNK         0.0000 
     25 C25         1.2880    2.5471   12.0527 C.ar      1 UNK         0.0000 
     26 C26        -0.5552   -0.8189   14.1923 C.ar      1 UNK         0.0000 
     27 C27        -1.9451   -1.0886   14.0616 C.ar      1 UNK         0.0000 
     28 O28        -2.7540   -0.3570   13.2047 O.3       1 UNK         0.0000 
     29 C29        -2.2335    0.6444   12.3522 C.3       1 UNK         0.0000 
     30 H30        -5.3357   -3.2522   13.5867 H         1 UNK         0.0000 
     31 H31        -3.7893   -4.0896   13.5592 H         1 UNK         0.0000 
     32 H32        -4.0126   -2.5804   12.6439 H         1 UNK         0.0000 
     33 H33        -2.1927   -3.6625   16.2629 H         1 UNK         0.0000 
     34 H34         0.1988   -3.2074   16.4977 H         1 UNK         0.0000 
     35 H35         1.9904   -1.9330   16.0525 H         1 UNK         0.0000 
     36 H36         5.1817    1.9635   13.3434 H         1 UNK         0.0000 
     37 H37         6.7861    0.9464   15.2759 H         1 UNK         0.0000 
     38 H38         6.2273   -0.7901   17.3528 H         1 UNK         0.0000 
     39 H39         4.5880    2.3444   11.2252 H         1 UNK         0.0000 
     40 H40         3.8539    3.8134    9.3727 H         1 UNK         0.0000 
     41 H41         1.4372    5.0378    8.3060 H         1 UNK         0.0000 
     42 H42        -1.3472    3.8635   11.0272 H         1 UNK         0.0000 
     43 H43         0.5928    2.2220   12.7999 H         1 UNK         0.0000 
     44 H44        -0.1077   -0.0333   13.6254 H         1 UNK         0.0000 
     45 H45        -3.0510    1.0731   11.7700 H         1 UNK         0.0000 
     46 H46        -1.5105    0.2345   11.6498 H         1 UNK         0.0000 
     47 H47        -1.7824    1.4497   12.9275 H         1 UNK         0.0000 
@<TRIPOS>BOND
     1    1    2 1    
     2    1   30 1    
     3    1   31 1    
     4    1   32 1    
     5    2    3 1    
     6    3    4 ar   
     7    3   27 ar   
     8    4    5 ar   
     9    4   33 1    
    10    5    6 ar   
    11    5   34 1    
    12    6    7 1    
    13    6   26 ar   
    14    7    8 1    
    15    7   35 1    
    16    8    9 ar   
    17    8   16 ar   
    18    9   10 ar   
    19   10   11 ar   
    20   10   17 1    
    21   11   12 ar   
    22   11   36 1    
    23   12   13 ar   
    24   12   16 ar   
    25   13   14 ar   
    26   13   37 1    
    27   14   15 ar   
    28   14   38 1    
    29   15   16 ar   
    30   17   18 ar   
    31   17   25 ar   
    32   18   19 ar   
    33   18   39 1    
    34   19   20 ar   
    35   19   40 1    
    36   20   21 ar   
    37   20   24 ar   
    38   21   22 ar   
    39   21   41 1    
    40   22   23 ar   
    41   23   24 ar   
    42   23   42 1    
    43   24   25 ar   
    44   25   43 1    
    45   26   27 ar   
    46   26   44 1    
    47   27   28 1    
    48   28   29 1    
    49   29   45 1    
    50   29   46 1    
    51   29   47 1    
@<TRIPOS>SUBSTRUCTURE
     1 UNK         1 GROUP             0       ****    0 ROOT    
