@<TRIPOS>MOLECULE
CHEMBL3265035
51   55    1
SMALL
USER_CHARGES


@<TRIPOS>ATOM
      1 C1         -4.5368   -3.3612   15.6406 C.3       1 UNK         0.0000 
      2 N2         -3.9561   -2.3810   14.7221 N.pl3     1 UNK         0.0000 
      3 C3         -4.6759   -2.0519   13.4970 C.3       1 UNK         0.0000 
      4 C4         -4.8094   -3.1968   12.4731 C.3       1 UNK         0.0000 
      5 O5         -5.3909   -2.7945   11.2538 O.3       1 UNK         0.0000 
      6 C6         -2.5380   -2.1167   14.8106 C.ar      1 UNK         0.0000 
      7 C7         -1.9279   -1.0927   14.0460 C.ar      1 UNK         0.0000 
      8 C8         -0.5515   -0.8247   14.1929 C.ar      1 UNK         0.0000 
      9 C9          0.2181   -1.5869   15.0916 C.ar      1 UNK         0.0000 
     10 N10         1.6005   -1.3598   15.3303 N.pl3     1 UNK         0.0000 
     11 C11         2.5326   -0.4516   14.7667 C.ar      1 UNK         0.0000 
     12 N12         2.1715    0.3794   13.7341 N.2       1 UNK         0.0000 
     13 C13         3.1060    1.2367   13.2184 C.ar      1 UNK         0.0000 
     14 C14         4.4145    1.2803   13.6968 C.ar      1 UNK         0.0000 
     15 N15         4.7440    0.4821   14.7570 N.pl3     1 UNK         0.0000 
     16 C16         5.8987    0.3805   15.4839 C.ar      1 UNK         0.0000 
     17 C17         5.5936   -0.5339   16.5243 C.ar      1 UNK         0.0000 
     18 N18         4.3807   -1.0510   16.3702 N.2       1 UNK         0.0000 
     19 C19         3.8367   -0.4037   15.3198 C.ar      1 UNK         0.0000 
     20 C20         2.6315    2.1595   12.1222 C.ar      1 UNK         0.0000 
     21 C21         3.5425    2.6427   11.1618 C.ar      1 UNK         0.0000 
     22 C22         3.1486    3.4642   10.1071 C.ar      1 UNK         0.0000 
     23 C23         1.8051    3.8185   10.0149 C.ar      1 UNK         0.0000 
     24 C24         0.9940    4.5977    9.1169 C.ar      1 UNK         0.0000 
     25 N25        -0.2465    4.6060    9.5156 N.2       1 UNK         0.0000 
     26 N26        -0.3325    3.8910   10.6299 N.pl3     1 UNK         0.0000 
     27 C27         0.8808    3.3589   10.9978 C.ar      1 UNK         0.0000 
     28 C28         1.2718    2.5352   12.0615 C.ar      1 UNK         0.0000 
     29 C29        -0.3941   -2.6060   15.8167 C.ar      1 UNK         0.0000 
     30 C30        -1.7488   -2.8660   15.6892 C.ar      1 UNK         0.0000 
     31 H31        -4.1278   -4.3576   15.4842 H         1 UNK         0.0000 
     32 H32        -5.6178   -3.4125   15.4956 H         1 UNK         0.0000 
     33 H33        -4.3606   -3.0644   16.6771 H         1 UNK         0.0000 
     34 H34        -4.3056   -1.1886   12.9786 H         1 UNK         0.0000 
     35 H35        -5.6839   -1.7325   13.7631 H         1 UNK         0.0000 
     36 H36        -5.1990   -4.1205   12.9069 H         1 UNK         0.0000 
     37 H37        -3.8094   -3.5657   12.2747 H         1 UNK         0.0000 
     38 H38        -4.7580   -2.2447   10.7741 H         1 UNK         0.0000 
     39 H39        -2.5097   -0.4888   13.3742 H         1 UNK         0.0000 
     40 H40        -0.1087   -0.0249   13.6285 H         1 UNK         0.0000 
     41 H41         1.9936   -1.9427   16.0592 H         1 UNK         0.0000 
     42 H42         5.1750    1.9595   13.3389 H         1 UNK         0.0000 
     43 H43         6.7815    0.9622   15.2772 H         1 UNK         0.0000 
     44 H44         6.2344   -0.8078   17.3485 H         1 UNK         0.0000 
     45 H45         4.5815    2.3487   11.2258 H         1 UNK         0.0000 
     46 H46         3.8643    3.8051    9.3767 H         1 UNK         0.0000 
     47 H47         1.3025    5.1220    8.2278 H         1 UNK         0.0000 
     48 H48        -1.2233    3.7862   11.0983 H         1 UNK         0.0000 
     49 H49         0.5648    2.1990   12.8082 H         1 UNK         0.0000 
     50 H50         0.1950   -3.1981   16.5054 H         1 UNK         0.0000 
     51 H51        -2.1858   -3.6564   16.2764 H         1 UNK         0.0000 
@<TRIPOS>BOND
     1    1    2 1    
     2    1   31 1    
     3    1   32 1    
     4    1   33 1    
     5    2    3 1    
     6    2    6 1    
     7    3    4 1    
     8    3   34 1    
     9    3   35 1    
    10    4    5 1    
    11    4   36 1    
    12    4   37 1    
    13    5   38 1    
    14    6    7 ar   
    15    6   30 ar   
    16    7    8 ar   
    17    7   39 1    
    18    8    9 ar   
    19    8   40 1    
    20    9   10 1    
    21    9   29 ar   
    22   10   11 1    
    23   10   41 1    
    24   11   12 ar   
    25   11   19 ar   
    26   12   13 ar   
    27   13   14 ar   
    28   13   20 1    
    29   14   15 ar   
    30   14   42 1    
    31   15   16 ar   
    32   15   19 ar   
    33   16   17 ar   
    34   16   43 1    
    35   17   18 ar   
    36   17   44 1    
    37   18   19 ar   
    38   20   21 ar   
    39   20   28 ar   
    40   21   22 ar   
    41   21   45 1    
    42   22   23 ar   
    43   22   46 1    
    44   23   24 ar   
    45   23   27 ar   
    46   24   25 ar   
    47   24   47 1    
    48   25   26 ar   
    49   26   27 ar   
    50   26   48 1    
    51   27   28 ar   
    52   28   49 1    
    53   29   30 ar   
    54   29   50 1    
    55   30   51 1    
@<TRIPOS>SUBSTRUCTURE
     1 UNK         1 GROUP             0       ****    0 ROOT    
