@<TRIPOS>MOLECULE
CHEMBL3265023
50   54    1
SMALL
USER_CHARGES


@<TRIPOS>ATOM
      1 C1         -4.2567   -3.1059   13.5673 C.3       1 UNK         0.0000 
      2 O2         -3.8729   -2.3613   14.7130 O.3       1 UNK         0.0000 
      3 C3         -2.5249   -2.1099   14.8153 C.ar      1 UNK         0.0000 
      4 C4         -1.7517   -2.8690   15.6822 C.ar      1 UNK         0.0000 
      5 C5         -0.3919   -2.6091   15.8186 C.ar      1 UNK         0.0000 
      6 C6          0.2189   -1.5847   15.0927 C.ar      1 UNK         0.0000 
      7 N7          1.6018   -1.3585   15.3330 N.pl3     1 UNK         0.0000 
      8 C8          2.5269   -0.4362   14.7717 C.ar      1 UNK         0.0000 
      9 N9          2.1589    0.3947   13.7415 N.2       1 UNK         0.0000 
     10 C10         3.1051    1.2383   13.2191 C.ar      1 UNK         0.0000 
     11 C11         4.4090    1.2795   13.7014 C.ar      1 UNK         0.0000 
     12 N12         4.7388    0.4912   14.7576 N.pl3     1 UNK         0.0000 
     13 C13         5.8975    0.3852   15.4842 C.ar      1 UNK         0.0000 
     14 C14         5.5969   -0.5378   16.5183 C.ar      1 UNK         0.0000 
     15 N15         4.3825   -1.0459   16.3661 N.2       1 UNK         0.0000 
     16 C16         3.8333   -0.3893   15.3272 C.ar      1 UNK         0.0000 
     17 C17         2.6571    2.1471   12.1112 C.ar      1 UNK         0.0000 
     18 C18         3.5899    2.6392   11.1753 C.ar      1 UNK         0.0000 
     19 C19         3.2345    3.5009   10.1325 C.ar      1 UNK         0.0000 
     20 C20         1.8924    3.8376   10.0551 C.ar      1 UNK         0.0000 
     21 C21         0.9171    3.3423   10.9725 C.ar      1 UNK         0.0000 
     22 C22        -0.3038    3.9315   10.5288 C.ar      1 UNK         0.0000 
     23 N23        -0.0986    4.6050    9.4408 N.2       1 UNK         0.0000 
     24 N24         1.1962    4.6448    9.1980 N.pl3     1 UNK         0.0000 
     25 C25         1.7045    5.4754    8.0961 C.3       1 UNK         0.0000 
     26 C26         1.3025    2.4943   12.0076 C.ar      1 UNK         0.0000 
     27 C27        -0.5544   -0.8156   14.1936 C.ar      1 UNK         0.0000 
     28 C28        -1.9395   -1.0837   14.0623 C.ar      1 UNK         0.0000 
     29 O29        -2.7429   -0.3421   13.2117 O.3       1 UNK         0.0000 
     30 C30        -2.2131    0.6368   12.3357 C.3       1 UNK         0.0000 
     31 H31        -5.3375   -3.2479   13.5825 H         1 UNK         0.0000 
     32 H32        -3.7907   -4.0919   13.5609 H         1 UNK         0.0000 
     33 H33        -4.0043   -2.5870   12.6413 H         1 UNK         0.0000 
     34 H34        -2.2103   -3.6575   16.2628 H         1 UNK         0.0000 
     35 H35         0.1961   -3.2002   16.5072 H         1 UNK         0.0000 
     36 H36         1.9973   -1.9477   16.0590 H         1 UNK         0.0000 
     37 H37         5.1715    1.9507   13.3355 H         1 UNK         0.0000 
     38 H38         6.7782    0.9732   15.2765 H         1 UNK         0.0000 
     39 H39         6.2398   -0.8227   17.3413 H         1 UNK         0.0000 
     40 H40         4.6155    2.3316   11.2554 H         1 UNK         0.0000 
     41 H41         3.9649    3.8698    9.4220 H         1 UNK         0.0000 
     42 H42        -1.2802    3.8493   10.9568 H         1 UNK         0.0000 
     43 H43         2.1994    4.8389    7.3819 H         1 UNK         0.0000 
     44 H44         2.4134    6.2165    8.4892 H         1 UNK         0.0000 
     45 H45         0.9332    5.9474    7.4753 H         1 UNK         0.0000 
     46 H46         0.5767    2.1227   12.7182 H         1 UNK         0.0000 
     47 H47        -0.1144   -0.0216   13.6244 H         1 UNK         0.0000 
     48 H48        -3.0360    1.0624   11.7579 H         1 UNK         0.0000 
     49 H49        -1.5052    0.1989   11.6324 H         1 UNK         0.0000 
     50 H50        -1.7487    1.4445   12.8985 H         1 UNK         0.0000 
@<TRIPOS>BOND
     1    1    2 1    
     2    1   31 1    
     3    1   32 1    
     4    1   33 1    
     5    2    3 1    
     6    3    4 ar   
     7    3   28 ar   
     8    4    5 ar   
     9    4   34 1    
    10    5    6 ar   
    11    5   35 1    
    12    6    7 1    
    13    6   27 ar   
    14    7    8 1    
    15    7   36 1    
    16    8    9 ar   
    17    8   16 ar   
    18    9   10 ar   
    19   10   11 ar   
    20   10   17 1    
    21   11   12 ar   
    22   11   37 1    
    23   12   13 ar   
    24   12   16 ar   
    25   13   14 ar   
    26   13   38 1    
    27   14   15 ar   
    28   14   39 1    
    29   15   16 ar   
    30   17   18 ar   
    31   17   26 ar   
    32   18   19 ar   
    33   18   40 1    
    34   19   20 ar   
    35   19   41 1    
    36   20   21 ar   
    37   20   24 ar   
    38   21   22 ar   
    39   21   26 ar   
    40   22   23 ar   
    41   22   42 1    
    42   23   24 ar   
    43   24   25 1    
    44   25   43 1    
    45   25   44 1    
    46   25   45 1    
    47   26   46 1    
    48   27   28 ar   
    49   27   47 1    
    50   28   29 1    
    51   29   30 1    
    52   30   48 1    
    53   30   49 1    
    54   30   50 1    
@<TRIPOS>SUBSTRUCTURE
     1 UNK         1 GROUP             0       ****    0 ROOT    
