@<TRIPOS>MOLECULE
CHEMBL3265025
50   54    1
SMALL
USER_CHARGES


@<TRIPOS>ATOM
      1 C1         -4.2554   -3.1070   13.5667 C.3       1 UNK         0.0000 
      2 O2         -3.8739   -2.3555   14.7096 O.3       1 UNK         0.0000 
      3 C3         -2.5267   -2.1066   14.8132 C.ar      1 UNK         0.0000 
      4 C4         -1.7520   -2.8715   15.6749 C.ar      1 UNK         0.0000 
      5 C5         -0.3933   -2.6145   15.8117 C.ar      1 UNK         0.0000 
      6 C6          0.2196   -1.5878   15.0897 C.ar      1 UNK         0.0000 
      7 N7          1.6042   -1.3666   15.3298 N.pl3     1 UNK         0.0000 
      8 C8          2.5249   -0.4338   14.7828 C.ar      1 UNK         0.0000 
      9 N9          2.1518    0.4044   13.7691 N.2       1 UNK         0.0000 
     10 C10         3.0983    1.2388   13.2332 C.ar      1 UNK         0.0000 
     11 C11         4.4000    1.2764   13.7009 C.ar      1 UNK         0.0000 
     12 N12         4.7368    0.4928   14.7596 N.pl3     1 UNK         0.0000 
     13 C13         5.8926    0.3911   15.4808 C.ar      1 UNK         0.0000 
     14 C14         5.6027   -0.5483   16.5053 C.ar      1 UNK         0.0000 
     15 N15         4.3885   -1.0602   16.3544 N.2       1 UNK         0.0000 
     16 C16         3.8325   -0.3883   15.3309 C.ar      1 UNK         0.0000 
     17 C17         2.6407    2.1399   12.1271 C.ar      1 UNK         0.0000 
     18 C18         3.5584    2.6399   11.1674 C.ar      1 UNK         0.0000 
     19 C19         3.1117    3.4654   10.1220 C.ar      1 UNK         0.0000 
     20 C20         1.7626    3.8038   10.0403 C.ar      1 UNK         0.0000 
     21 N21         1.2975    4.6116    9.0072 N.am      1 UNK         0.0000 
     22 C22        -0.0065    4.8513    8.7182 C.2       1 UNK         0.0000 
     23 O23        -0.4123    5.6311    7.8553 O.2       1 UNK         0.0000 
     24 C24        -0.9274    3.9668    9.6249 C.3       1 UNK         0.0000 
     25 O25        -0.4391    3.7019   10.9584 O.3       1 UNK         0.0000 
     26 C26         0.8806    3.3365   10.9991 C.ar      1 UNK         0.0000 
     27 C27         1.2955    2.5129   12.0280 C.ar      1 UNK         0.0000 
     28 C28        -0.5548   -0.8136   14.1938 C.ar      1 UNK         0.0000 
     29 C29        -1.9407   -1.0774   14.0650 C.ar      1 UNK         0.0000 
     30 O30        -2.7433   -0.3209   13.2263 O.3       1 UNK         0.0000 
     31 C31        -2.1991    0.3702   12.1141 C.3       1 UNK         0.0000 
     32 H32        -5.3362   -3.2511   13.5814 H         1 UNK         0.0000 
     33 H33        -3.7862   -4.0919   13.5584 H         1 UNK         0.0000 
     34 H34        -4.0024   -2.5902   12.6400 H         1 UNK         0.0000 
     35 H35        -2.2087   -3.6617   16.2534 H         1 UNK         0.0000 
     36 H36         0.1948   -3.2083   16.4987 H         1 UNK         0.0000 
     37 H37         1.9997   -1.9671   16.0417 H         1 UNK         0.0000 
     38 H38         5.1597    1.9397   13.3158 H         1 UNK         0.0000 
     39 H39         6.7704    0.9889   15.2738 H         1 UNK         0.0000 
     40 H40         6.2524   -0.8465   17.3109 H         1 UNK         0.0000 
     41 H41         4.6017    2.3682   11.2211 H         1 UNK         0.0000 
     42 H42         3.8116    3.8283    9.3793 H         1 UNK         0.0000 
     43 H43         1.9664    5.0550    8.3957 H         1 UNK         0.0000 
     44 H44        -1.0255    3.0007    9.1213 H         1 UNK         0.0000 
     45 H45        -1.9053    4.4356    9.6360 H         1 UNK         0.0000 
     46 H46         0.5824    2.1742   12.7618 H         1 UNK         0.0000 
     47 H47        -0.1140   -0.0195   13.6280 H         1 UNK         0.0000 
     48 H48        -3.0255    0.8261   11.5653 H         1 UNK         0.0000 
     49 H49        -1.6971   -0.3166   11.4335 H         1 UNK         0.0000 
     50 H50        -1.5230    1.1664   12.4132 H         1 UNK         0.0000 
@<TRIPOS>BOND
     1    1    2 1    
     2    1   32 1    
     3    1   33 1    
     4    1   34 1    
     5    2    3 1    
     6    3    4 ar   
     7    3   29 ar   
     8    4    5 ar   
     9    4   35 1    
    10    5    6 ar   
    11    5   36 1    
    12    6    7 1    
    13    6   28 ar   
    14    7    8 1    
    15    7   37 1    
    16    8    9 ar   
    17    8   16 ar   
    18    9   10 ar   
    19   10   11 ar   
    20   10   17 1    
    21   11   12 ar   
    22   11   38 1    
    23   12   13 ar   
    24   12   16 ar   
    25   13   14 ar   
    26   13   39 1    
    27   14   15 ar   
    28   14   40 1    
    29   15   16 ar   
    30   17   18 ar   
    31   17   27 ar   
    32   18   19 ar   
    33   18   41 1    
    34   19   20 ar   
    35   19   42 1    
    36   20   21 1    
    37   20   26 ar   
    38   21   22 am   BACKBONE|DICT|INTERRES
    39   21   43 1    
    40   22   23 2    
    41   22   24 1    
    42   24   25 1    
    43   24   44 1    
    44   24   45 1    
    45   25   26 1    
    46   26   27 ar   
    47   27   46 1    
    48   28   29 ar   
    49   28   47 1    
    50   29   30 1    
    51   30   31 1    
    52   31   48 1    
    53   31   49 1    
    54   31   50 1    
@<TRIPOS>SUBSTRUCTURE
     1 UNK         1 GROUP             0       ****    0 ROOT    
