@<TRIPOS>MOLECULE
CHEMBL3265034
53   58    1
SMALL
USER_CHARGES


@<TRIPOS>ATOM
      1 C1         -5.7484   -4.1352   14.0916 C.3       1 UNK         0.0000 
      2 C2         -4.2467   -3.7965   14.1043 C.3       1 UNK         0.0000 
      3 C3         -4.0046   -2.3867   14.6667 C.3       1 UNK         0.0000 
      4 C4         -4.7211   -2.2350   16.0203 C.3       1 UNK         0.0000 
      5 C5         -6.1989   -2.6529   15.9141 C.3       1 UNK         0.0000 
      6 O6         -6.2949   -3.9790   15.3990 O.3       1 UNK         0.0000 
      7 C7         -2.5163   -2.1019   14.8026 C.ar      1 UNK         0.0000 
      8 C8         -1.7444   -2.8650   15.6773 C.ar      1 UNK         0.0000 
      9 C9         -0.3947   -2.6068   15.8182 C.ar      1 UNK         0.0000 
     10 C10         0.2168   -1.5789   15.0929 C.ar      1 UNK         0.0000 
     11 N11         1.5959   -1.3413   15.3408 N.pl3     1 UNK         0.0000 
     12 C12         2.5346   -0.4433   14.7633 C.ar      1 UNK         0.0000 
     13 N13         2.1825    0.3683   13.7202 N.2       1 UNK         0.0000 
     14 C14         3.1144    1.2372   13.2163 C.ar      1 UNK         0.0000 
     15 C15         4.4190    1.2837   13.7018 C.ar      1 UNK         0.0000 
     16 N16         4.7465    0.4877   14.7594 N.pl3     1 UNK         0.0000 
     17 C17         5.8977    0.3771   15.4862 C.ar      1 UNK         0.0000 
     18 C18         5.5879   -0.5237   16.5292 C.ar      1 UNK         0.0000 
     19 N19         4.3754   -1.0416   16.3746 N.2       1 UNK         0.0000 
     20 C20         3.8361   -0.3925   15.3266 C.ar      1 UNK         0.0000 
     21 C21         2.6384    2.1617   12.1197 C.ar      1 UNK         0.0000 
     22 C22         3.5461    2.6405   11.1618 C.ar      1 UNK         0.0000 
     23 C23         3.1445    3.4623   10.1105 C.ar      1 UNK         0.0000 
     24 C24         1.7985    3.8158   10.0184 C.ar      1 UNK         0.0000 
     25 C25         0.9907    4.5934    9.1205 C.ar      1 UNK         0.0000 
     26 N26        -0.2502    4.6054    9.5128 N.2       1 UNK         0.0000 
     27 N27        -0.3377    3.8946   10.6262 N.pl3     1 UNK         0.0000 
     28 C28         0.8856    3.3616   10.9945 C.ar      1 UNK         0.0000 
     29 C29         1.2735    2.5429   12.0624 C.ar      1 UNK         0.0000 
     30 C30        -0.5534   -0.8155   14.1947 C.ar      1 UNK         0.0000 
     31 C31        -1.9224   -1.0793   14.0569 C.ar      1 UNK         0.0000 
     32 H32        -6.2805   -3.4837   13.3942 H         1 UNK         0.0000 
     33 H33        -5.9038   -5.1578   13.7553 H         1 UNK         0.0000 
     34 H34        -3.8408   -3.8755   13.0976 H         1 UNK         0.0000 
     35 H35        -3.7264   -4.5315   14.7202 H         1 UNK         0.0000 
     36 H36        -4.4085   -1.6510   13.9680 H         1 UNK         0.0000 
     37 H37        -4.6501   -1.2085   16.3760 H         1 UNK         0.0000 
     38 H38        -4.2346   -2.8646   16.7675 H         1 UNK         0.0000 
     39 H39        -6.7408   -1.9682   15.2574 H         1 UNK         0.0000 
     40 H40        -6.6781   -2.6070   16.8893 H         1 UNK         0.0000 
     41 H41        -2.1988   -3.6577   16.2587 H         1 UNK         0.0000 
     42 H42         0.1892   -3.2031   16.5076 H         1 UNK         0.0000 
     43 H43         1.9651   -1.8647   16.1167 H         1 UNK         0.0000 
     44 H44         5.1809    1.9629   13.3422 H         1 UNK         0.0000 
     45 H45         6.7856    0.9487   15.2757 H         1 UNK         0.0000 
     46 H46         6.2292   -0.7937   17.3519 H         1 UNK         0.0000 
     47 H47         4.5884    2.3469   11.2223 H         1 UNK         0.0000 
     48 H48         3.8528    3.8060    9.3832 H         1 UNK         0.0000 
     49 H49         1.3017    5.1139    8.2368 H         1 UNK         0.0000 
     50 H50        -1.2272    3.7941   11.0903 H         1 UNK         0.0000 
     51 H51         0.5743    2.2194   12.8032 H         1 UNK         0.0000 
     52 H52        -0.1159   -0.0226   13.6276 H         1 UNK         0.0000 
     53 H53        -2.5226   -0.4866   13.3791 H         1 UNK         0.0000 
@<TRIPOS>BOND
     1    1    2 1    
     2    1    6 1    
     3    1   32 1    
     4    1   33 1    
     5    2    3 1    
     6    2   34 1    
     7    2   35 1    
     8    3    4 1    
     9    3    7 1    
    10    3   36 1    
    11    4    5 1    
    12    4   37 1    
    13    4   38 1    
    14    5    6 1    
    15    5   39 1    
    16    5   40 1    
    17    7    8 ar   
    18    7   31 ar   
    19    8    9 ar   
    20    8   41 1    
    21    9   10 ar   
    22    9   42 1    
    23   10   11 1    
    24   10   30 ar   
    25   11   12 1    
    26   11   43 1    
    27   12   13 ar   
    28   12   20 ar   
    29   13   14 ar   
    30   14   15 ar   
    31   14   21 1    
    32   15   16 ar   
    33   15   44 1    
    34   16   17 ar   
    35   16   20 ar   
    36   17   18 ar   
    37   17   45 1    
    38   18   19 ar   
    39   18   46 1    
    40   19   20 ar   
    41   21   22 ar   
    42   21   29 ar   
    43   22   23 ar   
    44   22   47 1    
    45   23   24 ar   
    46   23   48 1    
    47   24   25 ar   
    48   24   28 ar   
    49   25   26 ar   
    50   25   49 1    
    51   26   27 ar   
    52   27   28 ar   
    53   27   50 1    
    54   28   29 ar   
    55   29   51 1    
    56   30   31 ar   
    57   30   52 1    
    58   31   53 1    
@<TRIPOS>SUBSTRUCTURE
     1 UNK         1 GROUP             0       ****    0 ROOT    
