@<TRIPOS>MOLECULE
CHEMBL3264998
63   67    1
SMALL
USER_CHARGES


@<TRIPOS>ATOM
      1 C1         -4.2555   -3.1029   13.5707 C.3       1 UNK         0.0000 
      2 O2         -3.8740   -2.3535   14.7166 O.3       1 UNK         0.0000 
      3 C3         -2.5261   -2.1057   14.8053 C.ar      1 UNK         0.0000 
      4 C4         -1.7497   -2.8673   15.6804 C.ar      1 UNK         0.0000 
      5 C5         -0.3863   -2.6106   15.8150 C.ar      1 UNK         0.0000 
      6 C6          0.2220   -1.5829   15.0890 C.ar      1 UNK         0.0000 
      7 N7          1.5930   -1.3491   15.3060 N.pl3     1 UNK         0.0000 
      8 C8          2.5452   -0.4689   14.7536 C.ar      1 UNK         0.0000 
      9 N9          2.2178    0.3551   13.7190 N.2       1 UNK         0.0000 
     10 C10         3.1227    1.2406   13.2181 C.ar      1 UNK         0.0000 
     11 C11         4.4207    1.3039   13.7175 C.ar      1 UNK         0.0000 
     12 N12         4.7482    0.4921   14.7654 N.pl3     1 UNK         0.0000 
     13 C13         5.8898    0.3836   15.5035 C.ar      1 UNK         0.0000 
     14 C14         5.5715   -0.5089   16.5177 C.ar      1 UNK         0.0000 
     15 N15         4.3818   -1.0543   16.3920 N.2       1 UNK         0.0000 
     16 C16         3.8330   -0.4170   15.3252 C.ar      1 UNK         0.0000 
     17 C17         2.6564    2.1560   12.1340 C.ar      1 UNK         0.0000 
     18 C18         3.5566    2.6280   11.1666 C.ar      1 UNK         0.0000 
     19 C19         3.1294    3.4499   10.1277 C.ar      1 UNK         0.0000 
     20 C20         1.7879    3.8078   10.0318 C.ar      1 UNK         0.0000 
     21 C21         0.8660    3.3707   10.9895 C.ar      1 UNK         0.0000 
     22 C22         1.3140    2.5576   12.0419 C.ar      1 UNK         0.0000 
     23 C23        -0.5783    3.7648   10.8956 C.2       1 UNK         0.0000 
     24 O24        -1.2695    3.6885    9.8840 O.2       1 UNK         0.0000 
     25 N25        -1.0448    4.2194   12.0590 N.am      1 UNK         0.0000 
     26 C26        -2.4077    4.6825   12.3031 C.ar      1 UNK         0.0000 
     27 C27        -2.6783    5.5030   13.3918 C.ar      1 UNK         0.0000 
     28 C28        -3.9757    5.9439   13.6242 C.ar      1 UNK         0.0000 
     29 C29        -5.0025    5.5643   12.7679 C.ar      1 UNK         0.0000 
     30 C30        -6.4027    6.0402   13.0187 C.3       1 UNK         0.0000 
     31 C31        -6.6249    7.3398   12.3033 C.2       1 UNK         0.0000 
     32 O32        -7.5065    7.4520   11.4386 O.co2     1 UNK         0.0000 
     33 O33        -5.8982    8.2982   12.6048 O.co2     1 UNK         0.0000 
     34 C34        -4.7319    4.7439   11.6792 C.ar      1 UNK         0.0000 
     35 C35        -3.4345    4.3030   11.4468 C.ar      1 UNK         0.0000 
     36 C36        -0.5664   -0.8256   14.2115 C.ar      1 UNK         0.0000 
     37 C37        -1.9389   -1.0760   14.0580 C.ar      1 UNK         0.0000 
     38 O38        -2.6991   -0.3052   13.2021 O.3       1 UNK         0.0000 
     39 C39        -2.0020    0.6746   12.5251 C.3       1 UNK         0.0000 
     40 H40        -3.7528   -4.0708   13.5508 H         1 UNK         0.0000 
     41 H41        -4.0179   -2.5675   12.6505 H         1 UNK         0.0000 
     42 H42        -5.3306   -3.2808   13.5889 H         1 UNK         0.0000 
     43 H43        -2.2100   -3.6528   16.2607 H         1 UNK         0.0000 
     44 H44         0.1911   -3.2101   16.5029 H         1 UNK         0.0000 
     45 H45         2.0246   -1.8858   16.0475 H         1 UNK         0.0000 
     46 H46         5.1701    2.0030   13.3719 H         1 UNK         0.0000 
     47 H47         6.7656    0.9739   15.2897 H         1 UNK         0.0000 
     48 H48         6.2089   -0.8330   17.3301 H         1 UNK         0.0000 
     49 H49         4.5934    2.3309   11.2002 H         1 UNK         0.0000 
     50 H50         3.8342    3.7939    9.3845 H         1 UNK         0.0000 
     51 H51         1.4564    4.4350    9.2166 H         1 UNK         0.0000 
     52 H52         0.6053    2.2130   12.7811 H         1 UNK         0.0000 
     53 H53        -0.5125    4.2989   12.9136 H         1 UNK         0.0000 
     54 H54        -1.8789    5.7984   14.0585 H         1 UNK         0.0000 
     55 H55        -4.1864    6.5826   14.4718 H         1 UNK         0.0000 
     56 H56        -6.5512    6.1845   14.0889 H         1 UNK         0.0000 
     57 H57        -7.1104    5.2973   12.6507 H         1 UNK         0.0000 
     58 H58        -5.5313    4.4485   11.0125 H         1 UNK         0.0000 
     59 H59        -3.2239    3.6643   10.5991 H         1 UNK         0.0000 
     60 H60        -0.1547   -0.0168   13.6337 H         1 UNK         0.0000 
     61 H61        -2.6851    1.2257   11.8787 H         1 UNK         0.0000 
     62 H62        -1.2218    0.2131   11.9198 H         1 UNK         0.0000 
     63 H63        -1.5485    1.3591   13.2420 H         1 UNK         0.0000 
@<TRIPOS>BOND
     1    1    2 1    
     2    1   40 1    
     3    1   41 1    
     4    1   42 1    
     5    2    3 1    
     6    3    4 ar   
     7    3   37 ar   
     8    4    5 ar   
     9    4   43 1    
    10    5    6 ar   
    11    5   44 1    
    12    6    7 1    
    13    6   36 ar   
    14    7    8 1    
    15    7   45 1    
    16    8    9 ar   
    17    8   16 ar   
    18    9   10 ar   
    19   10   11 ar   
    20   10   17 1    
    21   11   12 ar   
    22   11   46 1    
    23   12   13 ar   
    24   12   16 ar   
    25   13   14 ar   
    26   13   47 1    
    27   14   15 ar   
    28   14   48 1    
    29   15   16 ar   
    30   17   18 ar   
    31   17   22 ar   
    32   18   19 ar   
    33   18   49 1    
    34   19   20 ar   
    35   19   50 1    
    36   20   21 ar   
    37   20   51 1    
    38   21   22 ar   
    39   21   23 1    
    40   22   52 1    
    41   23   24 2    
    42   23   25 am   BACKBONE|DICT|INTERRES
    43   25   26 1    
    44   25   53 1    
    45   26   27 ar   
    46   26   35 ar   
    47   27   28 ar   
    48   27   54 1    
    49   28   29 ar   
    50   28   55 1    
    51   29   30 1    
    52   29   34 ar   
    53   30   31 1    
    54   30   56 1    
    55   30   57 1    
    56   31   32 2    
    57   31   33 1    
    58   34   35 ar   
    59   34   58 1    
    60   35   59 1    
    61   36   37 ar   
    62   36   60 1    
    63   37   38 1    
    64   38   39 1    
    65   39   61 1    
    66   39   62 1    
    67   39   63 1    
@<TRIPOS>SUBSTRUCTURE
     1 UNK         1 GROUP             0       ****    0 ROOT    
