@<TRIPOS>MOLECULE
CHEMBL3265003
65   70    1
SMALL
USER_CHARGES


@<TRIPOS>ATOM
      1 C1         -4.2555   -3.1029   13.5707 C.3       1 UNK         0.0000 
      2 O2         -3.8740   -2.3535   14.7166 O.3       1 UNK         0.0000 
      3 C3         -2.5261   -2.1057   14.8053 C.ar      1 UNK         0.0000 
      4 C4         -1.7497   -2.8673   15.6804 C.ar      1 UNK         0.0000 
      5 C5         -0.3863   -2.6106   15.8150 C.ar      1 UNK         0.0000 
      6 C6          0.2220   -1.5829   15.0890 C.ar      1 UNK         0.0000 
      7 N7          1.5930   -1.3491   15.3060 N.pl3     1 UNK         0.0000 
      8 C8          2.5452   -0.4689   14.7536 C.ar      1 UNK         0.0000 
      9 N9          2.2178    0.3551   13.7190 N.2       1 UNK         0.0000 
     10 C10         3.1227    1.2406   13.2181 C.ar      1 UNK         0.0000 
     11 C11         4.4207    1.3039   13.7175 C.ar      1 UNK         0.0000 
     12 N12         4.7482    0.4921   14.7654 N.pl3     1 UNK         0.0000 
     13 C13         5.8898    0.3836   15.5035 C.ar      1 UNK         0.0000 
     14 C14         5.5715   -0.5089   16.5177 C.ar      1 UNK         0.0000 
     15 N15         4.3818   -1.0543   16.3920 N.2       1 UNK         0.0000 
     16 C16         3.8330   -0.4170   15.3252 C.ar      1 UNK         0.0000 
     17 C17         2.6564    2.1560   12.1340 C.ar      1 UNK         0.0000 
     18 C18         3.5566    2.6280   11.1666 C.ar      1 UNK         0.0000 
     19 C19         3.1294    3.4499   10.1277 C.ar      1 UNK         0.0000 
     20 C20         1.7879    3.8078   10.0318 C.ar      1 UNK         0.0000 
     21 C21         0.8660    3.3707   10.9895 C.ar      1 UNK         0.0000 
     22 C22         1.3140    2.5576   12.0419 C.ar      1 UNK         0.0000 
     23 C23        -0.5881    3.7303   10.8428 C.2       1 UNK         0.0000 
     24 O24        -1.1092    3.7021    9.7263 O.2       1 UNK         0.0000 
     25 N25        -1.2179    4.0963   11.9826 N.am      1 UNK         0.0000 
     26 C26        -2.5548    4.5074   12.1308 C.ar      1 UNK         0.0000 
     27 C27        -3.5938    4.0626   11.3021 C.ar      1 UNK         0.0000 
     28 C28        -4.8906    4.5243   11.5030 C.ar      1 UNK         0.0000 
     29 C29        -5.1795    5.4211   12.5413 C.ar      1 UNK         0.0000 
     30 C30        -4.1385    5.8321   13.3869 C.ar      1 UNK         0.0000 
     31 C31        -2.8376    5.3818   13.1807 C.ar      1 UNK         0.0000 
     32 C32        -6.5795    5.9152   12.7554 C.ar      1 UNK         0.0000 
     33 C33        -7.8001    5.5757   12.2009 C.ar      1 UNK         0.0000 
     34 C34        -8.7342    6.4074   12.8268 C.ar      1 UNK         0.0000 
     35 N35        -8.1709    7.2095   13.7036 N.2       1 UNK         0.0000 
     36 N36        -6.8624    6.9071   13.6570 N.pl3     1 UNK         0.0000 
     37 C37        -0.5664   -0.8256   14.2115 C.ar      1 UNK         0.0000 
     38 C38        -1.9389   -1.0760   14.0580 C.ar      1 UNK         0.0000 
     39 O39        -2.7621   -0.3534   13.2116 O.3       1 UNK         0.0000 
     40 C40        -2.2029    0.6764   12.4028 C.3       1 UNK         0.0000 
     41 H41        -3.7319   -4.0591   13.5349 H         1 UNK         0.0000 
     42 H42        -4.0488   -2.5587   12.6486 H         1 UNK         0.0000 
     43 H43        -5.3256   -3.3057   13.6062 H         1 UNK         0.0000 
     44 H44        -2.2115   -3.6525   16.2595 H         1 UNK         0.0000 
     45 H45         0.1907   -3.2107   16.5029 H         1 UNK         0.0000 
     46 H46         2.0263   -1.8894   16.0446 H         1 UNK         0.0000 
     47 H47         5.1725    2.0000   13.3704 H         1 UNK         0.0000 
     48 H48         6.7667    0.9724   15.2895 H         1 UNK         0.0000 
     49 H49         6.2096   -0.8335   17.3296 H         1 UNK         0.0000 
     50 H50         4.5932    2.3291   11.1982 H         1 UNK         0.0000 
     51 H51         3.8321    3.7889    9.3800 H         1 UNK         0.0000 
     52 H52         1.4532    4.4207    9.2055 H         1 UNK         0.0000 
     53 H53         0.6102    2.1883   12.7736 H         1 UNK         0.0000 
     54 H54        -0.6256    4.1766   12.7928 H         1 UNK         0.0000 
     55 H55        -3.4137    3.3677   10.4946 H         1 UNK         0.0000 
     56 H56        -5.6833    4.1870   10.8507 H         1 UNK         0.0000 
     57 H57        -4.3476    6.5138   14.1986 H         1 UNK         0.0000 
     58 H58        -2.0539    5.7265   13.8396 H         1 UNK         0.0000 
     59 H59        -7.9941    4.8267   11.4440 H         1 UNK         0.0000 
     60 H60        -9.8018    6.4182   12.6378 H         1 UNK         0.0000 
     61 H61        -6.1655    7.3743   14.2366 H         1 UNK         0.0000 
     62 H62        -0.1266   -0.0266   13.6477 H         1 UNK         0.0000 
     63 H63        -1.4235    0.2925   11.7430 H         1 UNK         0.0000 
     64 H64        -1.7941    1.4768   13.0196 H         1 UNK         0.0000 
     65 H65        -2.9831    1.1078   11.7761 H         1 UNK         0.0000 
@<TRIPOS>BOND
     1    1    2 1    
     2    1   41 1    
     3    1   42 1    
     4    1   43 1    
     5    2    3 1    
     6    3    4 ar   
     7    3   38 ar   
     8    4    5 ar   
     9    4   44 1    
    10    5    6 ar   
    11    5   45 1    
    12    6    7 1    
    13    6   37 ar   
    14    7    8 1    
    15    7   46 1    
    16    8    9 ar   
    17    8   16 ar   
    18    9   10 ar   
    19   10   11 ar   
    20   10   17 1    
    21   11   12 ar   
    22   11   47 1    
    23   12   13 ar   
    24   12   16 ar   
    25   13   14 ar   
    26   13   48 1    
    27   14   15 ar   
    28   14   49 1    
    29   15   16 ar   
    30   17   18 ar   
    31   17   22 ar   
    32   18   19 ar   
    33   18   50 1    
    34   19   20 ar   
    35   19   51 1    
    36   20   21 ar   
    37   20   52 1    
    38   21   22 ar   
    39   21   23 1    
    40   22   53 1    
    41   23   24 2    
    42   23   25 am   BACKBONE|DICT|INTERRES
    43   25   26 1    
    44   25   54 1    
    45   26   27 ar   
    46   26   31 ar   
    47   27   28 ar   
    48   27   55 1    
    49   28   29 ar   
    50   28   56 1    
    51   29   30 ar   
    52   29   32 1    
    53   30   31 ar   
    54   30   57 1    
    55   31   58 1    
    56   32   36 ar   
    57   32   33 ar   
    58   33   34 ar   
    59   33   59 1    
    60   34   60 1    
    61   34   35 ar   
    62   35   36 ar   
    63   36   61 1    
    64   37   38 ar   
    65   37   62 1    
    66   38   39 1    
    67   39   40 1    
    68   40   63 1    
    69   40   64 1    
    70   40   65 1    
@<TRIPOS>SUBSTRUCTURE
     1 UNK         1 GROUP             0       ****    0 ROOT    
