@<TRIPOS>MOLECULE
CHEMBL3264996
64   68    1
SMALL
USER_CHARGES


@<TRIPOS>ATOM
      1 C1         -8.4523    6.1854   12.2890 C.3       1 UNK         0.0000 
      2 O2         -7.1802    5.7049   12.0537 O.3       1 UNK         0.0000 
      3 C3         -6.3297    6.2883   12.9360 C.2       1 UNK         0.0000 
      4 O4         -6.6901    7.1009   13.7801 O.2       1 UNK         0.0000 
      5 C5         -4.9394    5.7785   12.6965 C.ar      1 UNK         0.0000 
      6 C6         -4.7034    4.8507   11.6890 C.ar      1 UNK         0.0000 
      7 C7         -3.4153    4.3784   11.4671 C.ar      1 UNK         0.0000 
      8 C8         -2.3631    4.8339   12.2526 C.ar      1 UNK         0.0000 
      9 N9         -1.0100    4.3378   12.0195 N.am      1 UNK         0.0000 
     10 C10        -0.5783    3.7648   10.8956 C.2       1 UNK         0.0000 
     11 O11        -1.2977    3.5927    9.9160 O.2       1 UNK         0.0000 
     12 C12         0.8660    3.3707   10.9895 C.ar      1 UNK         0.0000 
     13 C13         1.7879    3.8078   10.0318 C.ar      1 UNK         0.0000 
     14 C14         3.1294    3.4499   10.1277 C.ar      1 UNK         0.0000 
     15 C15         3.5566    2.6280   11.1666 C.ar      1 UNK         0.0000 
     16 C16         2.6564    2.1560   12.1340 C.ar      1 UNK         0.0000 
     17 C17         1.3140    2.5576   12.0419 C.ar      1 UNK         0.0000 
     18 C18         3.1227    1.2406   13.2181 C.ar      1 UNK         0.0000 
     19 C19         4.4207    1.3039   13.7175 C.ar      1 UNK         0.0000 
     20 N20         4.7482    0.4921   14.7654 N.pl3     1 UNK         0.0000 
     21 C21         5.8898    0.3836   15.5035 C.ar      1 UNK         0.0000 
     22 C22         5.5715   -0.5089   16.5177 C.ar      1 UNK         0.0000 
     23 N23         4.3818   -1.0543   16.3920 N.2       1 UNK         0.0000 
     24 C24         3.8330   -0.4170   15.3252 C.ar      1 UNK         0.0000 
     25 C25         2.5452   -0.4689   14.7536 C.ar      1 UNK         0.0000 
     26 N26         1.5930   -1.3491   15.3060 N.pl3     1 UNK         0.0000 
     27 C27         0.2220   -1.5829   15.0890 C.ar      1 UNK         0.0000 
     28 C28        -0.3863   -2.6106   15.8150 C.ar      1 UNK         0.0000 
     29 C29        -1.7497   -2.8673   15.6804 C.ar      1 UNK         0.0000 
     30 C30        -2.5261   -2.1057   14.8053 C.ar      1 UNK         0.0000 
     31 O31        -3.8740   -2.3535   14.7166 O.3       1 UNK         0.0000 
     32 C32        -4.2555   -3.1029   13.5707 C.3       1 UNK         0.0000 
     33 C33        -1.9389   -1.0760   14.0580 C.ar      1 UNK         0.0000 
     34 O34        -2.6991   -0.3052   13.2022 O.3       1 UNK         0.0000 
     35 C35        -2.0020    0.6747   12.5251 C.3       1 UNK         0.0000 
     36 C36        -0.5664   -0.8256   14.2115 C.ar      1 UNK         0.0000 
     37 N37         2.2178    0.3551   13.7190 N.2       1 UNK         0.0000 
     38 C38        -2.5991    5.7618   13.2601 C.ar      1 UNK         0.0000 
     39 C39        -3.8873    6.2341   13.4820 C.ar      1 UNK         0.0000 
     40 H40        -9.1495    5.7265   11.5880 H         1 UNK         0.0000 
     41 H41        -8.4625    7.2672   12.1559 H         1 UNK         0.0000 
     42 H42        -8.7497    5.9420   13.3091 H         1 UNK         0.0000 
     43 H43        -5.5226    4.4960   11.0774 H         1 UNK         0.0000 
     44 H44        -3.2316    3.6560   10.6827 H         1 UNK         0.0000 
     45 H45        -0.4537    4.4986   12.8470 H         1 UNK         0.0000 
     46 H46         1.4564    4.4350    9.2166 H         1 UNK         0.0000 
     47 H47         3.8342    3.7939    9.3845 H         1 UNK         0.0000 
     48 H48         4.5934    2.3309   11.2002 H         1 UNK         0.0000 
     49 H49         0.6053    2.2130   12.7811 H         1 UNK         0.0000 
     50 H50         5.1701    2.0030   13.3719 H         1 UNK         0.0000 
     51 H51         6.7656    0.9739   15.2897 H         1 UNK         0.0000 
     52 H52         6.2088   -0.8330   17.3301 H         1 UNK         0.0000 
     53 H53         2.0245   -1.8852   16.0480 H         1 UNK         0.0000 
     54 H54         0.1911   -3.2101   16.5029 H         1 UNK         0.0000 
     55 H55        -2.2100   -3.6528   16.2607 H         1 UNK         0.0000 
     56 H56        -5.3306   -3.2805   13.5887 H         1 UNK         0.0000 
     57 H57        -3.7531   -4.0710   13.5510 H         1 UNK         0.0000 
     58 H58        -4.0176   -2.5677   12.6505 H         1 UNK         0.0000 
     59 H59        -2.6851    1.2257   11.8788 H         1 UNK         0.0000 
     60 H60        -1.2219    0.2131   11.9198 H         1 UNK         0.0000 
     61 H61        -1.5485    1.3591   13.2420 H         1 UNK         0.0000 
     62 H62        -0.1547   -0.0168   13.6337 H         1 UNK         0.0000 
     63 H63        -1.7800    6.1164   13.8717 H         1 UNK         0.0000 
     64 H64        -4.0710    6.9565   14.2664 H         1 UNK         0.0000 
@<TRIPOS>BOND
     1    1    2 1    
     2    1   40 1    
     3    1   41 1    
     4    1   42 1    
     5    2    3 1    
     6    3    4 2    
     7    3    5 1    
     8    5    6 ar   
     9    5   39 ar   
    10    6    7 ar   
    11    6   43 1    
    12    7    8 ar   
    13    7   44 1    
    14    8    9 1    
    15    8   38 ar   
    16    9   10 am   BACKBONE|DICT|INTERRES
    17    9   45 1    
    18   10   11 2    
    19   10   12 1    
    20   12   13 ar   
    21   12   17 ar   
    22   13   14 ar   
    23   13   46 1    
    24   14   15 ar   
    25   14   47 1    
    26   15   16 ar   
    27   15   48 1    
    28   16   17 ar   
    29   16   18 1    
    30   17   49 1    
    31   18   19 ar   
    32   18   37 ar   
    33   19   20 ar   
    34   19   50 1    
    35   20   21 ar   
    36   20   24 ar   
    37   21   22 ar   
    38   21   51 1    
    39   22   23 ar   
    40   22   52 1    
    41   23   24 ar   
    42   24   25 ar   
    43   25   26 1    
    44   25   37 ar   
    45   26   27 1    
    46   26   53 1    
    47   27   28 ar   
    48   27   36 ar   
    49   28   29 ar   
    50   28   54 1    
    51   29   30 ar   
    52   29   55 1    
    53   30   31 1    
    54   30   33 ar   
    55   31   32 1    
    56   32   56 1    
    57   32   57 1    
    58   32   58 1    
    59   33   34 1    
    60   33   36 ar   
    61   34   35 1    
    62   35   59 1    
    63   35   60 1    
    64   35   61 1    
    65   36   62 1    
    66   38   39 ar   
    67   38   63 1    
    68   39   64 1    
@<TRIPOS>SUBSTRUCTURE
     1 UNK         1 GROUP             0       ****    0 ROOT    
