@<TRIPOS>MOLECULE
CHEMBL3265016
48   52    1
SMALL
USER_CHARGES


@<TRIPOS>ATOM
      1 C1         -4.2568   -3.1050   13.5687 C.3       1 UNK         0.0000 
      2 O2         -3.8730   -2.3616   14.7152 O.3       1 UNK         0.0000 
      3 C3         -2.5250   -2.1116   14.8158 C.ar      1 UNK         0.0000 
      4 C4         -1.7470   -2.8700   15.6807 C.ar      1 UNK         0.0000 
      5 C5         -0.3902   -2.6106   15.8144 C.ar      1 UNK         0.0000 
      6 C6          0.2207   -1.5844   15.0868 C.ar      1 UNK         0.0000 
      7 N7          1.6046   -1.3596   15.3257 N.pl3     1 UNK         0.0000 
      8 C8          2.5329   -0.4401   14.7638 C.ar      1 UNK         0.0000 
      9 N9          2.1751    0.3788   13.7311 N.2       1 UNK         0.0000 
     10 C10         3.1086    1.2387   13.2176 C.ar      1 UNK         0.0000 
     11 C11         4.4159    1.2831   13.6998 C.ar      1 UNK         0.0000 
     12 N12         4.7435    0.4926   14.7566 N.pl3     1 UNK         0.0000 
     13 C13         5.8975    0.3810   15.4862 C.ar      1 UNK         0.0000 
     14 C14         5.5917   -0.5286   16.5249 C.ar      1 UNK         0.0000 
     15 N15         4.3780   -1.0408   16.3703 N.2       1 UNK         0.0000 
     16 C16         3.8370   -0.3906   15.3278 C.ar      1 UNK         0.0000 
     17 C17         2.6350    2.1602   12.1213 C.ar      1 UNK         0.0000 
     18 C18         3.5425    2.6402   11.1650 C.ar      1 UNK         0.0000 
     19 C19         3.1493    3.4616   10.1117 C.ar      1 UNK         0.0000 
     20 C20         1.8041    3.8212   10.0117 C.ar      1 UNK         0.0000 
     21 C21         1.0219    4.6165    9.0806 C.ar      1 UNK         0.0000 
     22 C22        -0.2682    4.5927    9.5377 C.ar      1 UNK         0.0000 
     23 N23        -0.3496    3.8668   10.6667 N.pl3     1 UNK         0.0000 
     24 C24         0.8806    3.3533   11.0064 C.ar      1 UNK         0.0000 
     25 C25         1.2701    2.5323   12.0703 C.ar      1 UNK         0.0000 
     26 C26        -0.5547   -0.8186   14.1912 C.ar      1 UNK         0.0000 
     27 C27        -1.9427   -1.0874   14.0603 C.ar      1 UNK         0.0000 
     28 O28        -2.7500   -0.3519   13.2066 O.3       1 UNK         0.0000 
     29 C29        -2.2281    0.6471   12.3512 C.3       1 UNK         0.0000 
     30 H30        -5.3362   -3.2528   13.5863 H         1 UNK         0.0000 
     31 H31        -3.7878   -4.0896   13.5583 H         1 UNK         0.0000 
     32 H32        -4.0115   -2.5819   12.6430 H         1 UNK         0.0000 
     33 H33        -2.1984   -3.6612   16.2623 H         1 UNK         0.0000 
     34 H34         0.1986   -3.2043   16.5000 H         1 UNK         0.0000 
     35 H35         1.9930   -1.9388   16.0550 H         1 UNK         0.0000 
     36 H36         5.1768    1.9603   13.3373 H         1 UNK         0.0000 
     37 H37         6.7836    0.9581   15.2759 H         1 UNK         0.0000 
     38 H38         6.2317   -0.8060   17.3476 H         1 UNK         0.0000 
     39 H39         4.5826    2.3470   11.2271 H         1 UNK         0.0000 
     40 H40         3.8655    3.8013    9.3845 H         1 UNK         0.0000 
     41 H41         1.3655    5.1278    8.2063 H         1 UNK         0.0000 
     42 H42        -1.1634    5.0533    9.1382 H         1 UNK         0.0000 
     43 H43        -1.2206    3.7428   11.1558 H         1 UNK         0.0000 
     44 H44         0.5744    2.1993   12.8125 H         1 UNK         0.0000 
     45 H45        -0.1099   -0.0288   13.6231 H         1 UNK         0.0000 
     46 H46        -3.0484    1.0726   11.7702 H         1 UNK         0.0000 
     47 H47        -1.5061    0.2341   11.6487 H         1 UNK         0.0000 
     48 H48        -1.7788    1.4529   12.9278 H         1 UNK         0.0000 
@<TRIPOS>BOND
     1    1    2 1    
     2    1   30 1    
     3    1   31 1    
     4    1   32 1    
     5    2    3 1    
     6    3    4 ar   
     7    3   27 ar   
     8    4    5 ar   
     9    4   33 1    
    10    5    6 ar   
    11    5   34 1    
    12    6    7 1    
    13    6   26 ar   
    14    7    8 1    
    15    7   35 1    
    16    8    9 ar   
    17    8   16 ar   
    18    9   10 ar   
    19   10   11 ar   
    20   10   17 1    
    21   11   12 ar   
    22   11   36 1    
    23   12   13 ar   
    24   12   16 ar   
    25   13   14 ar   
    26   13   37 1    
    27   14   15 ar   
    28   14   38 1    
    29   15   16 ar   
    30   17   18 ar   
    31   17   25 ar   
    32   18   19 ar   
    33   18   39 1    
    34   19   20 ar   
    35   19   40 1    
    36   20   21 ar   
    37   20   24 ar   
    38   21   22 ar   
    39   21   41 1    
    40   22   23 ar   
    41   22   42 1    
    42   23   24 ar   
    43   23   43 1    
    44   24   25 ar   
    45   25   44 1    
    46   26   27 ar   
    47   26   45 1    
    48   27   28 1    
    49   28   29 1    
    50   29   46 1    
    51   29   47 1    
    52   29   48 1    
@<TRIPOS>SUBSTRUCTURE
     1 UNK         1 GROUP             0       ****    0 ROOT    
