@<TRIPOS>MOLECULE
CHEMBL3264994
64   68    1
SMALL
USER_CHARGES


@<TRIPOS>ATOM
      1 C1         -4.1531   -3.4266   13.5369 C.3       1 UNK         0.0000 
      2 C2         -3.9919   -2.3907   14.6629 C.3       1 UNK         0.0000 
      3 C3         -4.6875   -1.0646   14.3101 C.3       1 UNK         0.0000 
      4 C4         -4.4873   -2.9438   16.0103 C.3       1 UNK         0.0000 
      5 C5         -2.5261   -2.1057   14.8053 C.ar      1 UNK         0.0000 
      6 C6         -1.9389   -1.0760   14.0580 C.ar      1 UNK         0.0000 
      7 C7         -0.5664   -0.8256   14.2115 C.ar      1 UNK         0.0000 
      8 C8          0.2220   -1.5829   15.0890 C.ar      1 UNK         0.0000 
      9 N9          1.5930   -1.3491   15.3060 N.pl3     1 UNK         0.0000 
     10 C10         2.5452   -0.4689   14.7536 C.ar      1 UNK         0.0000 
     11 N11         2.2178    0.3551   13.7190 N.2       1 UNK         0.0000 
     12 C12         3.1227    1.2406   13.2181 C.ar      1 UNK         0.0000 
     13 C13         4.4207    1.3039   13.7175 C.ar      1 UNK         0.0000 
     14 N14         4.7482    0.4921   14.7654 N.pl3     1 UNK         0.0000 
     15 C15         5.8898    0.3836   15.5035 C.ar      1 UNK         0.0000 
     16 C16         5.5715   -0.5089   16.5177 C.ar      1 UNK         0.0000 
     17 N17         4.3818   -1.0543   16.3920 N.2       1 UNK         0.0000 
     18 C18         3.8330   -0.4170   15.3252 C.ar      1 UNK         0.0000 
     19 C19         2.6564    2.1560   12.1340 C.ar      1 UNK         0.0000 
     20 C20         3.5566    2.6280   11.1666 C.ar      1 UNK         0.0000 
     21 C21         3.1294    3.4499   10.1277 C.ar      1 UNK         0.0000 
     22 C22         1.7879    3.8078   10.0318 C.ar      1 UNK         0.0000 
     23 C23         0.8660    3.3707   10.9895 C.ar      1 UNK         0.0000 
     24 N24        -0.5399    3.7537   10.8977 N.am      1 UNK         0.0000 
     25 C25        -1.2550    4.3141   11.8736 C.2       1 UNK         0.0000 
     26 O26        -0.8140    4.4931   13.0050 O.2       1 UNK         0.0000 
     27 C27        -2.6333    4.6854   11.4124 C.ar      1 UNK         0.0000 
     28 C28        -3.5436    5.2295   12.3108 C.ar      1 UNK         0.0000 
     29 C29        -4.8206    5.5735   11.8835 C.ar      1 UNK         0.0000 
     30 C30        -5.1873    5.3735   10.5579 C.ar      1 UNK         0.0000 
     31 C31        -4.2770    4.8294    9.6596 C.ar      1 UNK         0.0000 
     32 C32        -3.0000    4.4854   10.0869 C.ar      1 UNK         0.0000 
     33 C33        -6.5655    5.7447   10.0968 C.2       1 UNK         0.0000 
     34 O34        -6.9139    5.5749    8.9190 O.co2     1 UNK         0.0000 
     35 O35        -7.3451    6.2270   10.9318 O.co2     1 UNK         0.0000 
     36 C36         1.3140    2.5576   12.0419 C.ar      1 UNK         0.0000 
     37 C37        -0.3863   -2.6106   15.8150 C.ar      1 UNK         0.0000 
     38 C38        -1.7497   -2.8673   15.6804 C.ar      1 UNK         0.0000 
     39 H39        -5.2013   -3.6828   13.3771 H         1 UNK         0.0000 
     40 H40        -3.6186   -4.3486   13.7684 H         1 UNK         0.0000 
     41 H41        -3.7570   -3.0497   12.5933 H         1 UNK         0.0000 
     42 H42        -4.2998   -0.6503   13.3787 H         1 UNK         0.0000 
     43 H43        -4.5308   -0.3167   15.0883 H         1 UNK         0.0000 
     44 H44        -5.7636   -1.1975   14.1906 H         1 UNK         0.0000 
     45 H45        -5.5529   -3.1749   15.9796 H         1 UNK         0.0000 
     46 H46        -4.3275   -2.2256   16.8153 H         1 UNK         0.0000 
     47 H47        -3.9581   -3.8582   16.2809 H         1 UNK         0.0000 
     48 H48        -2.5303   -0.4809   13.3780 H         1 UNK         0.0000 
     49 H49        -0.1531   -0.0197   13.6305 H         1 UNK         0.0000 
     50 H50         2.0242   -1.8881   16.0458 H         1 UNK         0.0000 
     51 H51         5.1702    2.0027   13.3717 H         1 UNK         0.0000 
     52 H52         6.7657    0.9737   15.2895 H         1 UNK         0.0000 
     53 H53         6.2091   -0.8330   17.3300 H         1 UNK         0.0000 
     54 H54         4.5934    2.3308   11.2002 H         1 UNK         0.0000 
     55 H55         3.8342    3.7938    9.3845 H         1 UNK         0.0000 
     56 H56         1.4564    4.4348    9.2165 H         1 UNK         0.0000 
     57 H57        -0.8833    3.5257    9.9756 H         1 UNK         0.0000 
     58 H58        -3.2580    5.3853   13.3428 H         1 UNK         0.0000 
     59 H59        -5.5293    5.9971   12.5829 H         1 UNK         0.0000 
     60 H60        -4.5625    4.6736    8.6276 H         1 UNK         0.0000 
     61 H61        -2.2913    4.0618    9.3875 H         1 UNK         0.0000 
     62 H62         0.6052    2.2121   12.7807 H         1 UNK         0.0000 
     63 H63         0.1929   -3.2118   16.5002 H         1 UNK         0.0000 
     64 H64        -2.2057   -3.6608   16.2538 H         1 UNK         0.0000 
@<TRIPOS>BOND
     1    1    2 1    
     2    1   39 1    
     3    1   40 1    
     4    1   41 1    
     5    2    3 1    
     6    2    4 1    
     7    2    5 1    
     8    3   42 1    
     9    3   43 1    
    10    3   44 1    
    11    4   45 1    
    12    4   46 1    
    13    4   47 1    
    14    5    6 ar   
    15    5   38 ar   
    16    6    7 ar   
    17    6   48 1    
    18    7    8 ar   
    19    7   49 1    
    20    8    9 1    
    21    8   37 ar   
    22    9   10 1    
    23    9   50 1    
    24   10   11 ar   
    25   10   18 ar   
    26   11   12 ar   
    27   12   13 ar   
    28   12   19 1    
    29   13   14 ar   
    30   13   51 1    
    31   14   15 ar   
    32   14   18 ar   
    33   15   16 ar   
    34   15   52 1    
    35   16   17 ar   
    36   16   53 1    
    37   17   18 ar   
    38   19   20 ar   
    39   19   36 ar   
    40   20   21 ar   
    41   20   54 1    
    42   21   22 ar   
    43   21   55 1    
    44   22   23 ar   
    45   22   56 1    
    46   23   24 1    
    47   23   36 ar   
    48   24   25 am   BACKBONE|DICT|INTERRES
    49   24   57 1    
    50   25   26 2    
    51   25   27 1    
    52   27   28 ar   
    53   27   32 ar   
    54   28   29 ar   
    55   28   58 1    
    56   29   30 ar   
    57   29   59 1    
    58   30   31 ar   
    59   30   33 1    
    60   31   32 ar   
    61   31   60 1    
    62   32   61 1    
    63   33   34 2    
    64   33   35 1    
    65   36   62 1    
    66   37   38 ar   
    67   37   63 1    
    68   38   64 1    
@<TRIPOS>SUBSTRUCTURE
     1 UNK         1 GROUP             0       ****    0 ROOT    
