@<TRIPOS>MOLECULE
CHEMBL3265013
51   54    1
SMALL
USER_CHARGES


@<TRIPOS>ATOM
      1 C1         -4.2553   -3.1063   13.5659 C.3       1 UNK         0.0000 
      2 O2         -3.8742   -2.3531   14.7065 O.3       1 UNK         0.0000 
      3 C3         -2.5276   -2.1063   14.8134 C.ar      1 UNK         0.0000 
      4 C4         -1.7534   -2.8662   15.6836 C.ar      1 UNK         0.0000 
      5 C5         -0.3974   -2.6067   15.8226 C.ar      1 UNK         0.0000 
      6 C6          0.2193   -1.5855   15.0957 C.ar      1 UNK         0.0000 
      7 N7          1.6033   -1.3619   15.3321 N.pl3     1 UNK         0.0000 
      8 C8          2.5310   -0.4394   14.7826 C.ar      1 UNK         0.0000 
      9 N9          2.1681    0.3851   13.7534 N.2       1 UNK         0.0000 
     10 C10         3.1084    1.2291   13.2323 C.ar      1 UNK         0.0000 
     11 C11         4.4111    1.2775   13.7062 C.ar      1 UNK         0.0000 
     12 N12         4.7446    0.4849   14.7663 N.pl3     1 UNK         0.0000 
     13 C13         5.8943    0.3819   15.4817 C.ar      1 UNK         0.0000 
     14 C14         5.5914   -0.5326   16.5146 C.ar      1 UNK         0.0000 
     15 N15         4.3838   -1.0600   16.3570 N.2       1 UNK         0.0000 
     16 C16         3.8360   -0.3910   15.3315 C.ar      1 UNK         0.0000 
     17 C17         2.6494    2.1359   12.1286 C.ar      1 UNK         0.0000 
     18 C18         3.5584    2.6335   11.1783 C.ar      1 UNK         0.0000 
     19 C19         3.1269    3.4578   10.1469 C.ar      1 UNK         0.0000 
     20 C20         1.7725    3.8115   10.0354 C.ar      1 UNK         0.0000 
     21 C21         1.3343    4.6941    8.8847 C.2       1 UNK         0.0000 
     22 O22         2.0989    5.5193    8.3952 O.2       1 UNK         0.0000 
     23 N23         0.0978    4.4815    8.4258 N.am      1 UNK         0.0000 
     24 C24         0.8524    3.3384   11.0121 C.ar      1 UNK         0.0000 
     25 C25        -0.6224    3.7518   10.9890 C.3       1 UNK         0.0000 
     26 C26         1.2991    2.5101   12.0360 C.ar      1 UNK         0.0000 
     27 C27        -0.5507   -0.8158   14.1957 C.ar      1 UNK         0.0000 
     28 C28        -1.9415   -1.0842   14.0609 C.ar      1 UNK         0.0000 
     29 O29        -2.7452   -0.3406   13.2070 O.3       1 UNK         0.0000 
     30 C30        -2.1924    0.4470   12.1700 C.3       1 UNK         0.0000 
     31 H31        -5.3356   -3.2496   13.5811 H         1 UNK         0.0000 
     32 H32        -3.7889   -4.0922   13.5603 H         1 UNK         0.0000 
     33 H33        -4.0032   -2.5893   12.6399 H         1 UNK         0.0000 
     34 H34        -2.2026   -3.6557   16.2609 H         1 UNK         0.0000 
     35 H35         0.1866   -3.2024   16.5111 H         1 UNK         0.0000 
     36 H36         1.9910   -1.9452   16.0564 H         1 UNK         0.0000 
     37 H37         5.1687    1.9466   13.3246 H         1 UNK         0.0000 
     38 H38         6.7729    0.9741   15.2789 H         1 UNK         0.0000 
     39 H39         6.2395   -0.8158   17.3246 H         1 UNK         0.0000 
     40 H40         4.5960    2.3576   11.2295 H         1 UNK         0.0000 
     41 H41         3.8409    3.8102    9.4155 H         1 UNK         0.0000 
     42 H42        -0.2537    5.0105    7.6461 H         1 UNK         0.0000 
     43 H43        -0.4831    3.7720    8.8458 H         1 UNK         0.0000 
     44 H44        -1.1053    3.5651   11.9422 H         1 UNK         0.0000 
     45 H45        -1.1697    3.2135   10.2168 H         1 UNK         0.0000 
     46 H46        -0.7255    4.8289   10.8204 H         1 UNK         0.0000 
     47 H47         0.6002    2.1680   12.7776 H         1 UNK         0.0000 
     48 H48        -0.1045   -0.0276   13.6335 H         1 UNK         0.0000 
     49 H49        -3.0148    0.9031   11.6158 H         1 UNK         0.0000 
     50 H50        -1.6244   -0.1596   11.4651 H         1 UNK         0.0000 
     51 H51        -1.5752    1.2513   12.5580 H         1 UNK         0.0000 
@<TRIPOS>BOND
     1    1    2 1    
     2    1   31 1    
     3    1   32 1    
     4    1   33 1    
     5    2    3 1    
     6    3    4 ar   
     7    3   28 ar   
     8    4    5 ar   
     9    4   34 1    
    10    5    6 ar   
    11    5   35 1    
    12    6    7 1    
    13    6   27 ar   
    14    7    8 1    
    15    7   36 1    
    16    8    9 ar   
    17    8   16 ar   
    18    9   10 ar   
    19   10   11 ar   
    20   10   17 1    
    21   11   12 ar   
    22   11   37 1    
    23   12   13 ar   
    24   12   16 ar   
    25   13   14 ar   
    26   13   38 1    
    27   14   15 ar   
    28   14   39 1    
    29   15   16 ar   
    30   17   18 ar   
    31   17   26 ar   
    32   18   19 ar   
    33   18   40 1    
    34   19   20 ar   
    35   19   41 1    
    36   20   21 1    
    37   20   24 ar   
    38   21   22 2    
    39   21   23 am   BACKBONE|DICT|INTERRES
    40   23   42 1    
    41   23   43 1    
    42   24   25 1    
    43   24   26 ar   
    44   25   44 1    
    45   25   45 1    
    46   25   46 1    
    47   26   47 1    
    48   27   28 ar   
    49   27   48 1    
    50   28   29 1    
    51   29   30 1    
    52   30   49 1    
    53   30   50 1    
    54   30   51 1    
@<TRIPOS>SUBSTRUCTURE
     1 UNK         1 GROUP             0       ****    0 ROOT    
