@<TRIPOS>MOLECULE
title: molecule 1
60   64    1
SMALL
USER_CHARGES


@<TRIPOS>ATOM
      1 C1         -4.2550   -3.1030   13.5710 C.3       1 UNK         0.0000 
      2 O2         -3.8740   -2.3530   14.7170 O.3       1 UNK         0.0000 
      3 C3         -2.5260   -2.1060   14.8050 C.3       1 UNK         0.0000 
      4 C4         -1.7500   -2.8670   15.6800 C.3       1 UNK         0.0000 
      5 C5         -0.3860   -2.6110   15.8150 C.3       1 UNK         0.0000 
      6 C6          0.2220   -1.5830   15.0890 C.3       1 UNK         0.0000 
      7 N7          1.5930   -1.3490   15.3060 N.3       1 UNK         0.0000 
      8 C8          2.5450   -0.4690   14.7540 C.3       1 UNK         0.0000 
      9 N9          2.2180    0.3550   13.7190 N.3       1 UNK         0.0000 
     10 C10         3.1230    1.2410   13.2180 C.3       1 UNK         0.0000 
     11 C11         4.4210    1.3040   13.7170 C.3       1 UNK         0.0000 
     12 N12         4.7480    0.4920   14.7650 N.3       1 UNK         0.0000 
     13 C13         5.8900    0.3840   15.5040 C.3       1 UNK         0.0000 
     14 C14         5.5720   -0.5090   16.5180 C.3       1 UNK         0.0000 
     15 N15         4.3820   -1.0540   16.3920 N.3       1 UNK         0.0000 
     16 C16         3.8330   -0.4170   15.3250 C.3       1 UNK         0.0000 
     17 C17         2.6560    2.1560   12.1340 C.3       1 UNK         0.0000 
     18 C18         3.5570    2.6280   11.1670 C.3       1 UNK         0.0000 
     19 C19         3.1290    3.4500   10.1280 C.3       1 UNK         0.0000 
     20 C20         1.7880    3.8080   10.0320 C.3       1 UNK         0.0000 
     21 C21         0.8660    3.3710   10.9890 C.3       1 UNK         0.0000 
     22 C22         1.3140    2.5580   12.0420 C.3       1 UNK         0.0000 
     23 C23        -0.5780    3.7650   10.8960 C.3       1 UNK         0.0000 
     24 O24        -1.2610    3.7180    9.8770 O.3       1 UNK         0.0000 
     25 N25        -1.0550    4.1830   12.0680 N.3       1 UNK         0.0000 
     26 C26        -2.4210    4.6360   12.3150 C.3       1 UNK         0.0000 
     27 C27        -2.7020    5.4230   13.4260 C.3       1 UNK         0.0000 
     28 C28        -4.0030    5.8540   13.6610 C.3       1 UNK         0.0000 
     29 C29        -5.0210    5.4990   12.7850 C.3       1 UNK         0.0000 
     30 C30        -4.7400    4.7120   11.6740 C.3       1 UNK         0.0000 
     31 C31        -3.4400    4.2810   11.4390 C.3       1 UNK         0.0000 
     32 C32        -5.8400    4.3290   10.7290 C.2       1 UNK         0.0000 
     33 O33        -5.6120    3.6280    9.7320 O.co2     1 UNK         0.0000 
     34 O34        -6.9850    4.7350   10.9770 O.co2     1 UNK         0.0000 
     35 C35        -0.5660   -0.8260   14.2110 C.3       1 UNK         0.0000 
     36 C36        -1.9390   -1.0760   14.0580 C.3       1 UNK         0.0000 
     37 O37        -2.6990   -0.3050   13.2020 O.3       1 UNK         0.0000 
     38 C38        -2.0020    0.6750   12.5250 C.3       1 UNK         0.0000 
     39 H39        -3.7530   -4.0710   13.5510 H         1 UNK         0.0000 
     40 H40        -4.0180   -2.5670   12.6500 H         1 UNK         0.0000 
     41 H41        -5.3310   -3.2810   13.5890 H         1 UNK         0.0000 
     42 H42        -2.2100   -3.6530   16.2610 H         1 UNK         0.0000 
     43 H43         0.1910   -3.2100   16.5030 H         1 UNK         0.0000 
     44 H44         2.0250   -1.8860   16.0470 H         1 UNK         0.0000 
     45 H45         5.1700    2.0030   13.3720 H         1 UNK         0.0000 
     46 H46         6.7660    0.9740   15.2900 H         1 UNK         0.0000 
     47 H47         6.2090   -0.8330   17.3300 H         1 UNK         0.0000 
     48 H48         4.5930    2.3310   11.2000 H         1 UNK         0.0000 
     49 H49         3.8340    3.7940    9.3840 H         1 UNK         0.0000 
     50 H50         1.4560    4.4350    9.2170 H         1 UNK         0.0000 
     51 H51         0.6050    2.2130   12.7810 H         1 UNK         0.0000 
     52 H52        -0.5300    4.2380   12.9290 H         1 UNK         0.0000 
     53 H53        -1.9090    5.6990   14.1080 H         1 UNK         0.0000 
     54 H54        -4.2220    6.4660   14.5250 H         1 UNK         0.0000 
     55 H55        -6.0340    5.8350   12.9680 H         1 UNK         0.0000 
     56 H56        -3.2210    3.6680   10.5740 H         1 UNK         0.0000 
     57 H57        -0.1550   -0.0170   13.6340 H         1 UNK         0.0000 
     58 H58        -2.6850    1.2260   11.8790 H         1 UNK         0.0000 
     59 H59        -1.2220    0.2130   11.9200 H         1 UNK         0.0000 
     60 H60        -1.5480    1.3590   13.2420 H         1 UNK         0.0000 
@<TRIPOS>BOND
     1    1    2 1    
     2    1   39 1    
     3    1   40 1    
     4    1   41 1    
     5    2    3 1    
     6    3    4 1    
     7    3   36 1    
     8    4    5 1    
     9    4   42 1    
    10    5    6 1    
    11    5   43 1    
    12    6    7 1    
    13    6   35 1    
    14    7    8 1    
    15    7   44 1    
    16    8    9 1    
    17    8   16 1    
    18    9   10 1    
    19   10   11 1    
    20   10   17 1    
    21   11   12 1    
    22   11   45 1    
    23   12   13 1    
    24   12   16 1    
    25   13   14 1    
    26   13   46 1    
    27   14   15 1    
    28   14   47 1    
    29   15   16 1    
    30   17   18 1    
    31   17   22 1    
    32   18   19 1    
    33   18   48 1    
    34   19   20 1    
    35   19   49 1    
    36   20   21 1    
    37   20   50 1    
    38   21   22 1    
    39   21   23 1    
    40   22   51 1    
    41   23   24 1    
    42   23   25 1    
    43   25   26 1    
    44   25   52 1    
    45   26   27 1    
    46   26   31 1    
    47   27   28 1    
    48   27   53 1    
    49   28   29 1    
    50   28   54 1    
    51   29   30 1    
    52   29   55 1    
    53   30   31 1    
    54   30   32 1    
    55   31   56 1    
    56   32   33 1    
    57   32   34 2    
    58   35   36 1    
    59   35   57 1    
    60   36   37 1    
    61   37   38 1    
    62   38   58 1    
    63   38   59 1    
    64   38   60 1    
@<TRIPOS>SUBSTRUCTURE
     1 UNK         1 GROUP             0       ****    0 ROOT    
