@<TRIPOS>MOLECULE
CHEMBL3265024
50   54    1
SMALL
USER_CHARGES


@<TRIPOS>ATOM
      1 C1         -4.2568   -3.1054   13.5684 C.3       1 UNK         0.0000 
      2 O2         -3.8727   -2.3625   14.7149 O.3       1 UNK         0.0000 
      3 C3         -2.5248   -2.1122   14.8155 C.ar      1 UNK         0.0000 
      4 C4         -1.7475   -2.8704   15.6805 C.ar      1 UNK         0.0000 
      5 C5         -0.3908   -2.6105   15.8142 C.ar      1 UNK         0.0000 
      6 C6          0.2212   -1.5850   15.0876 C.ar      1 UNK         0.0000 
      7 N7          1.6034   -1.3608   15.3283 N.pl3     1 UNK         0.0000 
      8 C8          2.5312   -0.4403   14.7667 C.ar      1 UNK         0.0000 
      9 N9          2.1675    0.3842   13.7368 N.2       1 UNK         0.0000 
     10 C10         3.1076    1.2383   13.2220 C.ar      1 UNK         0.0000 
     11 C11         4.4125    1.2788   13.7032 C.ar      1 UNK         0.0000 
     12 N12         4.7426    0.4894   14.7579 N.pl3     1 UNK         0.0000 
     13 C13         5.8974    0.3808   15.4860 C.ar      1 UNK         0.0000 
     14 C14         5.5940   -0.5330   16.5234 C.ar      1 UNK         0.0000 
     15 N15         4.3802   -1.0455   16.3684 N.2       1 UNK         0.0000 
     16 C16         3.8358   -0.3914   15.3289 C.ar      1 UNK         0.0000 
     17 C17         2.6478    2.1536   12.1231 C.ar      1 UNK         0.0000 
     18 C18         3.5652    2.6370   11.1626 C.ar      1 UNK         0.0000 
     19 C19         3.1327    3.4633   10.1244 C.ar      1 UNK         0.0000 
     20 C20         1.7965    3.8161   10.0403 C.ar      1 UNK         0.0000 
     21 O21         1.4003    4.6403    9.0163 O.3       1 UNK         0.0000 
     22 C22         0.0245    4.4666    8.5995 C.3       1 UNK         0.0000 
     23 C23        -1.0306    4.3224    9.7544 C.2       1 UNK         0.0000 
     24 O24        -2.2095    4.6594    9.6693 O.2       1 UNK         0.0000 
     25 N25        -0.4630    3.7540   10.8496 N.am      1 UNK         0.0000 
     26 C26         0.8760    3.3777   10.9729 C.ar      1 UNK         0.0000 
     27 C27         1.2936    2.5512   12.0256 C.ar      1 UNK         0.0000 
     28 C28        -0.5545   -0.8186   14.1904 C.ar      1 UNK         0.0000 
     29 C29        -1.9414   -1.0869   14.0597 C.ar      1 UNK         0.0000 
     30 O30        -2.7479   -0.3495   13.2074 O.3       1 UNK         0.0000 
     31 C31        -2.2257    0.6484   12.3503 C.3       1 UNK         0.0000 
     32 H32        -5.3364   -3.2530   13.5862 H         1 UNK         0.0000 
     33 H33        -3.7871   -4.0896   13.5579 H         1 UNK         0.0000 
     34 H34        -4.0111   -2.5827   12.6426 H         1 UNK         0.0000 
     35 H35        -2.2013   -3.6605   16.2619 H         1 UNK         0.0000 
     36 H36         0.1985   -3.2029   16.5011 H         1 UNK         0.0000 
     37 H37         1.9936   -1.9428   16.0565 H         1 UNK         0.0000 
     38 H38         5.1741    1.9556   13.3388 H         1 UNK         0.0000 
     39 H39         6.7812    0.9637   15.2765 H         1 UNK         0.0000 
     40 H40         6.2349   -0.8119   17.3458 H         1 UNK         0.0000 
     41 H41         4.6048    2.3508   11.2165 H         1 UNK         0.0000 
     42 H42         3.8336    3.8213    9.3866 H         1 UNK         0.0000 
     43 H43        -0.2884    5.2770    7.9386 H         1 UNK         0.0000 
     44 H44        -0.0356    3.5427    8.0188 H         1 UNK         0.0000 
     45 H45        -1.0932    3.5716   11.6149 H         1 UNK         0.0000 
     46 H46         0.5806    2.2143   12.7659 H         1 UNK         0.0000 
     47 H47        -0.1112   -0.0266   13.6222 H         1 UNK         0.0000 
     48 H48        -3.0472    1.0725   11.7697 H         1 UNK         0.0000 
     49 H49        -1.5042    0.2337   11.6479 H         1 UNK         0.0000 
     50 H50        -1.7772    1.4543   12.9275 H         1 UNK         0.0000 
@<TRIPOS>BOND
     1    1    2 1    
     2    1   32 1    
     3    1   33 1    
     4    1   34 1    
     5    2    3 1    
     6    3    4 ar   
     7    3   29 ar   
     8    4    5 ar   
     9    4   35 1    
    10    5    6 ar   
    11    5   36 1    
    12    6    7 1    
    13    6   28 ar   
    14    7    8 1    
    15    7   37 1    
    16    8    9 ar   
    17    8   16 ar   
    18    9   10 ar   
    19   10   11 ar   
    20   10   17 1    
    21   11   12 ar   
    22   11   38 1    
    23   12   13 ar   
    24   12   16 ar   
    25   13   14 ar   
    26   13   39 1    
    27   14   15 ar   
    28   14   40 1    
    29   15   16 ar   
    30   17   18 ar   
    31   17   27 ar   
    32   18   19 ar   
    33   18   41 1    
    34   19   20 ar   
    35   19   42 1    
    36   20   21 1    
    37   20   26 ar   
    38   21   22 1    
    39   22   23 1    
    40   22   43 1    
    41   22   44 1    
    42   23   24 2    
    43   23   25 am   BACKBONE|DICT|INTERRES
    44   25   26 1    
    45   25   45 1    
    46   26   27 ar   
    47   27   46 1    
    48   28   29 ar   
    49   28   47 1    
    50   29   30 1    
    51   30   31 1    
    52   31   48 1    
    53   31   49 1    
    54   31   50 1    
@<TRIPOS>SUBSTRUCTURE
     1 UNK         1 GROUP             0       ****    0 ROOT    
