@<TRIPOS>MOLECULE
CHEMBL3265006
51   54    1
SMALL
USER_CHARGES


@<TRIPOS>ATOM
      1 C1         -2.4212    4.6361   12.3150 C.3       1 UNK         0.0000 
      2 N2         -1.0554    4.1831   12.0682 N.am      1 UNK         0.0000 
      3 C3         -0.5783    3.7648   10.8955 C.2       1 UNK         0.0000 
      4 O4         -1.2609    3.7178    9.8765 O.2       1 UNK         0.0000 
      5 C5          0.8660    3.3707   10.9895 C.ar      1 UNK         0.0000 
      6 C6          1.7879    3.8078   10.0318 C.ar      1 UNK         0.0000 
      7 C7          3.1294    3.4499   10.1277 C.ar      1 UNK         0.0000 
      8 C8          3.5566    2.6280   11.1666 C.ar      1 UNK         0.0000 
      9 C9          2.6564    2.1560   12.1340 C.ar      1 UNK         0.0000 
     10 C10         1.3140    2.5576   12.0419 C.ar      1 UNK         0.0000 
     11 C11         3.1227    1.2406   13.2181 C.ar      1 UNK         0.0000 
     12 C12         4.4207    1.3039   13.7175 C.ar      1 UNK         0.0000 
     13 N13         4.7482    0.4921   14.7654 N.pl3     1 UNK         0.0000 
     14 C14         5.8898    0.3836   15.5035 C.ar      1 UNK         0.0000 
     15 C15         5.5715   -0.5089   16.5177 C.ar      1 UNK         0.0000 
     16 N16         4.3818   -1.0543   16.3920 N.2       1 UNK         0.0000 
     17 C17         3.8330   -0.4170   15.3252 C.ar      1 UNK         0.0000 
     18 C18         2.5452   -0.4689   14.7536 C.ar      1 UNK         0.0000 
     19 N19         1.5930   -1.3491   15.3060 N.pl3     1 UNK         0.0000 
     20 C20         0.2220   -1.5829   15.0890 C.ar      1 UNK         0.0000 
     21 C21        -0.3863   -2.6106   15.8150 C.ar      1 UNK         0.0000 
     22 C22        -1.7497   -2.8673   15.6804 C.ar      1 UNK         0.0000 
     23 C23        -2.5261   -2.1057   14.8053 C.ar      1 UNK         0.0000 
     24 O24        -3.8740   -2.3535   14.7166 O.3       1 UNK         0.0000 
     25 C25        -4.2555   -3.1029   13.5707 C.3       1 UNK         0.0000 
     26 C26        -1.9389   -1.0760   14.0580 C.ar      1 UNK         0.0000 
     27 O27        -2.6991   -0.3052   13.2022 O.3       1 UNK         0.0000 
     28 C28        -2.0020    0.6747   12.5251 C.3       1 UNK         0.0000 
     29 C29        -0.5664   -0.8256   14.2115 C.ar      1 UNK         0.0000 
     30 N30         2.2178    0.3551   13.7190 N.2       1 UNK         0.0000 
     31 H31        -2.5270    4.9174   13.3627 H         1 UNK         0.0000 
     32 H32        -3.1185    3.8312   12.0826 H         1 UNK         0.0000 
     33 H33        -2.6378    5.4979   11.6837 H         1 UNK         0.0000 
     34 H34        -0.5302    4.2377   12.9293 H         1 UNK         0.0000 
     35 H35         1.4564    4.4350    9.2166 H         1 UNK         0.0000 
     36 H36         3.8342    3.7939    9.3845 H         1 UNK         0.0000 
     37 H37         4.5934    2.3309   11.2002 H         1 UNK         0.0000 
     38 H38         0.6053    2.2130   12.7810 H         1 UNK         0.0000 
     39 H39         5.1701    2.0030   13.3719 H         1 UNK         0.0000 
     40 H40         6.7656    0.9739   15.2897 H         1 UNK         0.0000 
     41 H41         6.2089   -0.8330   17.3301 H         1 UNK         0.0000 
     42 H42         2.0245   -1.8853   16.0480 H         1 UNK         0.0000 
     43 H43         0.1911   -3.2101   16.5029 H         1 UNK         0.0000 
     44 H44        -2.2100   -3.6528   16.2607 H         1 UNK         0.0000 
     45 H45        -4.0223   -2.5652   12.6508 H         1 UNK         0.0000 
     46 H46        -5.3298   -3.2850   13.5913 H         1 UNK         0.0000 
     47 H47        -3.7492   -4.0689   13.5480 H         1 UNK         0.0000 
     48 H48        -2.6852    1.2258   11.8788 H         1 UNK         0.0000 
     49 H49        -1.2219    0.2131   11.9198 H         1 UNK         0.0000 
     50 H50        -1.5484    1.3591   13.2420 H         1 UNK         0.0000 
     51 H51        -0.1547   -0.0168   13.6337 H         1 UNK         0.0000 
@<TRIPOS>BOND
     1    1    2 1    
     2    1   31 1    
     3    1   32 1    
     4    1   33 1    
     5    2    3 am   BACKBONE|DICT|INTERRES
     6    2   34 1    
     7    3    4 2    
     8    3    5 1    
     9    5    6 ar   
    10    5   10 ar   
    11    6    7 ar   
    12    6   35 1    
    13    7    8 ar   
    14    7   36 1    
    15    8    9 ar   
    16    8   37 1    
    17    9   10 ar   
    18    9   11 1    
    19   10   38 1    
    20   11   12 ar   
    21   11   30 ar   
    22   12   13 ar   
    23   12   39 1    
    24   13   14 ar   
    25   13   17 ar   
    26   14   15 ar   
    27   14   40 1    
    28   15   16 ar   
    29   15   41 1    
    30   16   17 ar   
    31   17   18 ar   
    32   18   19 1    
    33   18   30 ar   
    34   19   20 1    
    35   19   42 1    
    36   20   21 ar   
    37   20   29 ar   
    38   21   22 ar   
    39   21   43 1    
    40   22   23 ar   
    41   22   44 1    
    42   23   24 1    
    43   23   26 ar   
    44   24   25 1    
    45   25   45 1    
    46   25   46 1    
    47   25   47 1    
    48   26   27 1    
    49   26   29 ar   
    50   27   28 1    
    51   28   48 1    
    52   28   49 1    
    53   28   50 1    
    54   29   51 1    
@<TRIPOS>SUBSTRUCTURE
     1 UNK         1 GROUP             0       ****    0 ROOT    
