@<TRIPOS>MOLECULE
CHEMBL3265022
50   54    1
SMALL
USER_CHARGES


@<TRIPOS>ATOM
      1 C1         -4.2567   -3.1047   13.5688 C.3       1 UNK         0.0000 
      2 O2         -3.8734   -2.3604   14.7149 O.3       1 UNK         0.0000 
      3 C3         -2.5253   -2.1111   14.8171 C.ar      1 UNK         0.0000 
      4 C4         -1.7475   -2.8730   15.6782 C.ar      1 UNK         0.0000 
      5 C5         -0.3907   -2.6182   15.8081 C.ar      1 UNK         0.0000 
      6 C6          0.2216   -1.5894   15.0857 C.ar      1 UNK         0.0000 
      7 N7          1.6073   -1.3712   15.3149 N.pl3     1 UNK         0.0000 
      8 C8          2.5355   -0.4471   14.7615 C.ar      1 UNK         0.0000 
      9 N9          2.1757    0.3798   13.7323 N.2       1 UNK         0.0000 
     10 C10         3.1108    1.2385   13.2179 C.ar      1 UNK         0.0000 
     11 C11         4.4177    1.2796   13.6973 C.ar      1 UNK         0.0000 
     12 N12         4.7459    0.4877   14.7580 N.pl3     1 UNK         0.0000 
     13 C13         5.8989    0.3777   15.4842 C.ar      1 UNK         0.0000 
     14 C14         5.5905   -0.5278   16.5266 C.ar      1 UNK         0.0000 
     15 N15         4.3783   -1.0442   16.3710 N.2       1 UNK         0.0000 
     16 C16         3.8361   -0.3924   15.3256 C.ar      1 UNK         0.0000 
     17 C17         2.6345    2.1599   12.1209 C.ar      1 UNK         0.0000 
     18 C18         3.5455    2.6449   11.1653 C.ar      1 UNK         0.0000 
     19 C19         3.1472    3.4641   10.1113 C.ar      1 UNK         0.0000 
     20 C20         1.8026    3.8166   10.0162 C.ar      1 UNK         0.0000 
     21 C21         0.9964    4.5969    9.1149 C.ar      1 UNK         0.0000 
     22 N22        -0.2457    4.6110    9.5049 N.2       1 UNK         0.0000 
     23 N23        -0.3357    3.9010   10.6180 N.pl3     1 UNK         0.0000 
     24 C24        -1.6267    3.7825   11.2689 C.3       1 UNK         0.0000 
     25 C25         0.8830    3.3583   10.9929 C.ar      1 UNK         0.0000 
     26 C26         1.2696    2.5335   12.0602 C.ar      1 UNK         0.0000 
     27 C27        -0.5547   -0.8145   14.1988 C.ar      1 UNK         0.0000 
     28 C28        -1.9437   -1.0858   14.0662 C.ar      1 UNK         0.0000 
     29 O29        -2.7514   -0.3534   13.2139 O.3       1 UNK         0.0000 
     30 C30        -2.2220    0.6070   12.3331 C.3       1 UNK         0.0000 
     31 H31        -5.3359   -3.2534   13.5870 H         1 UNK         0.0000 
     32 H32        -3.7874   -4.0892   13.5581 H         1 UNK         0.0000 
     33 H33        -4.0127   -2.5809   12.6432 H         1 UNK         0.0000 
     34 H34        -2.1986   -3.6652   16.2573 H         1 UNK         0.0000 
     35 H35         0.1975   -3.2194   16.4879 H         1 UNK         0.0000 
     36 H36         2.0047   -1.9732   16.0205 H         1 UNK         0.0000 
     37 H37         5.1816    1.9533   13.3327 H         1 UNK         0.0000 
     38 H38         6.7844    0.9544   15.2754 H         1 UNK         0.0000 
     39 H39         6.2308   -0.8005   17.3497 H         1 UNK         0.0000 
     40 H40         4.5872    2.3567   11.2306 H         1 UNK         0.0000 
     41 H41         3.8598    3.8084    9.3838 H         1 UNK         0.0000 
     42 H42         1.3099    5.1193    8.2308 H         1 UNK         0.0000 
     43 H43        -1.5635    4.1826   12.2778 H         1 UNK         0.0000 
     44 H44        -1.8990    2.7466   11.2882 H         1 UNK         0.0000 
     45 H45        -2.4088    4.3136   10.7194 H         1 UNK         0.0000 
     46 H46         0.5682    2.1998   12.8003 H         1 UNK         0.0000 
     47 H47        -0.1091   -0.0207   13.6374 H         1 UNK         0.0000 
     48 H48        -3.0436    1.0382   11.7546 H         1 UNK         0.0000 
     49 H49        -1.5161    0.1773   11.6242 H         1 UNK         0.0000 
     50 H50        -1.7468    1.4118   12.8931 H         1 UNK         0.0000 
@<TRIPOS>BOND
     1    1    2 1    
     2    1   31 1    
     3    1   32 1    
     4    1   33 1    
     5    2    3 1    
     6    3    4 ar   
     7    3   28 ar   
     8    4    5 ar   
     9    4   34 1    
    10    5    6 ar   
    11    5   35 1    
    12    6    7 1    
    13    6   27 ar   
    14    7    8 1    
    15    7   36 1    
    16    8    9 ar   
    17    8   16 ar   
    18    9   10 ar   
    19   10   11 ar   
    20   10   17 1    
    21   11   12 ar   
    22   11   37 1    
    23   12   13 ar   
    24   12   16 ar   
    25   13   14 ar   
    26   13   38 1    
    27   14   15 ar   
    28   14   39 1    
    29   15   16 ar   
    30   17   18 ar   
    31   17   26 ar   
    32   18   19 ar   
    33   18   40 1    
    34   19   20 ar   
    35   19   41 1    
    36   20   21 ar   
    37   20   25 ar   
    38   21   22 ar   
    39   21   42 1    
    40   22   23 ar   
    41   23   24 1    
    42   23   25 ar   
    43   24   43 1    
    44   24   44 1    
    45   24   45 1    
    46   25   26 ar   
    47   26   46 1    
    48   27   28 ar   
    49   27   47 1    
    50   28   29 1    
    51   29   30 1    
    52   30   48 1    
    53   30   49 1    
    54   30   50 1    
@<TRIPOS>SUBSTRUCTURE
     1 UNK         1 GROUP             0       ****    0 ROOT    
