@<TRIPOS>MOLECULE
CHEMBL3265009
51   54    1
SMALL
USER_CHARGES


@<TRIPOS>ATOM
      1 C1         -4.2555   -3.1029   13.5707 C.3       1 UNK         0.0000 
      2 O2         -3.8740   -2.3535   14.7166 O.3       1 UNK         0.0000 
      3 C3         -2.5261   -2.1057   14.8053 C.ar      1 UNK         0.0000 
      4 C4         -1.7497   -2.8673   15.6804 C.ar      1 UNK         0.0000 
      5 C5         -0.3863   -2.6106   15.8150 C.ar      1 UNK         0.0000 
      6 C6          0.2220   -1.5829   15.0890 C.ar      1 UNK         0.0000 
      7 N7          1.5930   -1.3491   15.3060 N.pl3     1 UNK         0.0000 
      8 C8          2.5452   -0.4689   14.7536 C.ar      1 UNK         0.0000 
      9 N9          2.2178    0.3551   13.7190 N.2       1 UNK         0.0000 
     10 C10         3.1227    1.2406   13.2181 C.ar      1 UNK         0.0000 
     11 C11         4.4207    1.3039   13.7175 C.ar      1 UNK         0.0000 
     12 N12         4.7482    0.4921   14.7654 N.pl3     1 UNK         0.0000 
     13 C13         5.8898    0.3836   15.5035 C.ar      1 UNK         0.0000 
     14 C14         5.5715   -0.5089   16.5177 C.ar      1 UNK         0.0000 
     15 N15         4.3818   -1.0543   16.3920 N.2       1 UNK         0.0000 
     16 C16         3.8330   -0.4170   15.3252 C.ar      1 UNK         0.0000 
     17 C17         2.6564    2.1560   12.1340 C.ar      1 UNK         0.0000 
     18 C18         3.5566    2.6280   11.1666 C.ar      1 UNK         0.0000 
     19 C19         3.1294    3.4499   10.1277 C.ar      1 UNK         0.0000 
     20 C20         1.7879    3.8078   10.0318 C.ar      1 UNK         0.0000 
     21 C21         1.3278    4.6785    8.9004 C.3       1 UNK         0.0000 
     22 C22         0.8660    3.3707   10.9895 C.ar      1 UNK         0.0000 
     23 C23         1.3140    2.5576   12.0419 C.ar      1 UNK         0.0000 
     24 C24        -0.5782    3.7649   10.8956 C.2       1 UNK         0.0000 
     25 O25        -1.4474    3.1358   10.2993 O.2       1 UNK         0.0000 
     26 N26        -0.8250    4.9023   11.5462 N.am      1 UNK         0.0000 
     27 C27        -0.5664   -0.8256   14.2115 C.ar      1 UNK         0.0000 
     28 C28        -1.9389   -1.0760   14.0580 C.ar      1 UNK         0.0000 
     29 O29        -2.6991   -0.3051   13.2023 O.3       1 UNK         0.0000 
     30 C30        -2.0021    0.6747   12.5252 C.3       1 UNK         0.0000 
     31 H31        -3.7566   -4.0728   13.5537 H         1 UNK         0.0000 
     32 H32        -4.0132   -2.5700   12.6504 H         1 UNK         0.0000 
     33 H33        -5.3313   -3.2764   13.5862 H         1 UNK         0.0000 
     34 H34        -2.2100   -3.6528   16.2607 H         1 UNK         0.0000 
     35 H35         0.1911   -3.2101   16.5029 H         1 UNK         0.0000 
     36 H36         2.0245   -1.8852   16.0481 H         1 UNK         0.0000 
     37 H37         5.1701    2.0029   13.3719 H         1 UNK         0.0000 
     38 H38         6.7656    0.9739   15.2896 H         1 UNK         0.0000 
     39 H39         6.2090   -0.8330   17.3300 H         1 UNK         0.0000 
     40 H40         4.5935    2.3310   11.2004 H         1 UNK         0.0000 
     41 H41         3.8342    3.7938    9.3845 H         1 UNK         0.0000 
     42 H42         0.2554    4.8524    8.9886 H         1 UNK         0.0000 
     43 H43         1.5389    4.1839    7.9522 H         1 UNK         0.0000 
     44 H44         1.8548    5.6319    8.9381 H         1 UNK         0.0000 
     45 H45         0.6052    2.2126   12.7809 H         1 UNK         0.0000 
     46 H46        -1.7254    5.3545   11.6162 H         1 UNK         0.0000 
     47 H47        -0.1417    5.4508   12.0485 H         1 UNK         0.0000 
     48 H48        -0.1546   -0.0169   13.6336 H         1 UNK         0.0000 
     49 H49        -2.6852    1.2258   11.8789 H         1 UNK         0.0000 
     50 H50        -1.2220    0.2132   11.9198 H         1 UNK         0.0000 
     51 H51        -1.5484    1.3591   13.2421 H         1 UNK         0.0000 
@<TRIPOS>BOND
     1    1    2 1    
     2    1   31 1    
     3    1   32 1    
     4    1   33 1    
     5    2    3 1    
     6    3    4 ar   
     7    3   28 ar   
     8    4    5 ar   
     9    4   34 1    
    10    5    6 ar   
    11    5   35 1    
    12    6    7 1    
    13    6   27 ar   
    14    7    8 1    
    15    7   36 1    
    16    8    9 ar   
    17    8   16 ar   
    18    9   10 ar   
    19   10   11 ar   
    20   10   17 1    
    21   11   12 ar   
    22   11   37 1    
    23   12   13 ar   
    24   12   16 ar   
    25   13   14 ar   
    26   13   38 1    
    27   14   15 ar   
    28   14   39 1    
    29   15   16 ar   
    30   17   18 ar   
    31   17   23 ar   
    32   18   19 ar   
    33   18   40 1    
    34   19   20 ar   
    35   19   41 1    
    36   20   21 1    
    37   20   22 ar   
    38   21   42 1    
    39   21   43 1    
    40   21   44 1    
    41   22   23 ar   
    42   22   24 1    
    43   23   45 1    
    44   24   25 2    
    45   24   26 am   BACKBONE|DICT|INTERRES
    46   26   46 1    
    47   26   47 1    
    48   27   28 ar   
    49   27   48 1    
    50   28   29 1    
    51   29   30 1    
    52   30   49 1    
    53   30   50 1    
    54   30   51 1    
@<TRIPOS>SUBSTRUCTURE
     1 UNK         1 GROUP             0       ****    0 ROOT    
