@<TRIPOS>MOLECULE
CHEMBL3265036
55   60    1
SMALL
USER_CHARGES


@<TRIPOS>ATOM
      1 C1         -4.7688   -2.7849   12.3431 C.3       1 UNK         0.0000 
      2 C2         -5.3846   -4.1377   12.6456 C.3       1 UNK         0.0000 
      3 O3         -4.4594   -4.9732   13.3425 O.3       1 UNK         0.0000 
      4 C4         -4.3771   -4.8619   14.7737 C.3       1 UNK         0.0000 
      5 C5         -4.4823   -3.4746   15.4482 C.3       1 UNK         0.0000 
      6 N6         -3.8932   -2.3265   14.7696 N.pl3     1 UNK         0.0000 
      7 C7         -4.5743   -1.9363   13.5651 C.3       1 UNK         0.0000 
      8 C8         -2.4838   -2.1095   14.8521 C.ar      1 UNK         0.0000 
      9 C9         -1.6944   -2.8761   15.7249 C.ar      1 UNK         0.0000 
     10 C10        -0.3386   -2.6335   15.8473 C.ar      1 UNK         0.0000 
     11 C11         0.2634   -1.6168   15.1140 C.ar      1 UNK         0.0000 
     12 N12         1.6446   -1.3934   15.3516 N.pl3     1 UNK         0.0000 
     13 C13         2.5467   -0.4494   14.7774 C.ar      1 UNK         0.0000 
     14 N14         2.1622    0.3813   13.7703 N.2       1 UNK         0.0000 
     15 C15         3.0905    1.2361   13.2368 C.ar      1 UNK         0.0000 
     16 C16         4.3967    1.2828   13.6973 C.ar      1 UNK         0.0000 
     17 N17         4.7322    0.4976   14.7555 N.pl3     1 UNK         0.0000 
     18 C18         5.8998    0.3887   15.4576 C.ar      1 UNK         0.0000 
     19 C19         5.6143   -0.5477   16.4779 C.ar      1 UNK         0.0000 
     20 N20         4.4157   -1.0782   16.3290 N.2       1 UNK         0.0000 
     21 C21         3.8521   -0.4000   15.3224 C.ar      1 UNK         0.0000 
     22 C22         2.6115    2.1334   12.1178 C.ar      1 UNK         0.0000 
     23 C23         3.5406    2.6292   11.1800 C.ar      1 UNK         0.0000 
     24 C24         3.1477    3.4565   10.1243 C.ar      1 UNK         0.0000 
     25 C25         1.8039    3.8086   10.0214 C.ar      1 UNK         0.0000 
     26 C26         1.0010    4.6077    9.1343 C.ar      1 UNK         0.0000 
     27 N27        -0.2411    4.6153    9.5215 N.2       1 UNK         0.0000 
     28 N28        -0.3421    3.8665   10.6189 N.pl3     1 UNK         0.0000 
     29 C29         0.8809    3.3298   10.9772 C.ar      1 UNK         0.0000 
     30 C30         1.2478    2.4836   12.0372 C.ar      1 UNK         0.0000 
     31 C31        -0.4905   -0.8517   14.2206 C.ar      1 UNK         0.0000 
     32 C32        -1.8442   -1.1028   14.0951 C.ar      1 UNK         0.0000 
     33 H33        -5.4655   -2.2112   11.7306 H         1 UNK         0.0000 
     34 H34        -3.8535   -2.8315   11.7616 H         1 UNK         0.0000 
     35 H35        -5.6106   -4.5931   11.6807 H         1 UNK         0.0000 
     36 H36        -6.3420   -4.0330   13.1669 H         1 UNK         0.0000 
     37 H37        -3.4412   -5.3258   15.0901 H         1 UNK         0.0000 
     38 H38        -5.1781   -5.4795   15.1894 H         1 UNK         0.0000 
     39 H39        -4.1424   -3.5352   16.4845 H         1 UNK         0.0000 
     40 H40        -5.5391   -3.2263   15.6236 H         1 UNK         0.0000 
     41 H41        -4.1926   -0.9915   13.1890 H         1 UNK         0.0000 
     42 H42        -5.5588   -1.6067   13.9319 H         1 UNK         0.0000 
     43 H43        -2.1452   -3.6541   16.3212 H         1 UNK         0.0000 
     44 H44         0.2418   -3.2285   16.5309 H         1 UNK         0.0000 
     45 H45         2.0461   -1.9727   16.0611 H         1 UNK         0.0000 
     46 H46         5.1489    1.9535   13.3193 H         1 UNK         0.0000 
     47 H47         6.7638    0.9944   15.2597 H         1 UNK         0.0000 
     48 H48         6.2642   -0.8294   17.2788 H         1 UNK         0.0000 
     49 H49         4.5777    2.3521   11.2618 H         1 UNK         0.0000 
     50 H50         3.8741    3.8108    9.4106 H         1 UNK         0.0000 
     51 H51         1.3139    5.1535    8.2666 H         1 UNK         0.0000 
     52 H52        -1.2254    3.7567   11.0774 H         1 UNK         0.0000 
     53 H53         0.5353    2.1303   12.7513 H         1 UNK         0.0000 
     54 H54        -0.0514   -0.0690   13.6498 H         1 UNK         0.0000 
     55 H55        -2.4203   -0.4773   13.4210 H         1 UNK         0.0000 
@<TRIPOS>BOND
     1    1    2 1    
     2    1    7 1    
     3    1   33 1    
     4    1   34 1    
     5    2    3 1    
     6    2   35 1    
     7    2   36 1    
     8    3    4 1    
     9    4    5 1    
    10    4   37 1    
    11    4   38 1    
    12    5    6 1    
    13    5   39 1    
    14    5   40 1    
    15    6    7 1    
    16    6    8 1    
    17    7   41 1    
    18    7   42 1    
    19    8    9 ar   
    20    8   32 ar   
    21    9   10 ar   
    22    9   43 1    
    23   10   11 ar   
    24   10   44 1    
    25   11   12 1    
    26   11   31 ar   
    27   12   13 1    
    28   12   45 1    
    29   13   14 ar   
    30   13   21 ar   
    31   14   15 ar   
    32   15   16 ar   
    33   15   22 1    
    34   16   17 ar   
    35   16   46 1    
    36   17   18 ar   
    37   17   21 ar   
    38   18   19 ar   
    39   18   47 1    
    40   19   20 ar   
    41   19   48 1    
    42   20   21 ar   
    43   22   23 ar   
    44   22   30 ar   
    45   23   24 ar   
    46   23   49 1    
    47   24   25 ar   
    48   24   50 1    
    49   25   26 ar   
    50   25   29 ar   
    51   26   27 ar   
    52   26   51 1    
    53   27   28 ar   
    54   28   29 ar   
    55   28   52 1    
    56   29   30 ar   
    57   30   53 1    
    58   31   32 ar   
    59   31   54 1    
    60   32   55 1    
@<TRIPOS>SUBSTRUCTURE
     1 UNK         1 GROUP             0       ****    0 ROOT    
