@<TRIPOS>MOLECULE
CHEMBL3265012
48   51    1
SMALL
USER_CHARGES


@<TRIPOS>ATOM
      1 C1         -4.2558   -3.1075   13.5651 C.3       1 UNK         0.0000 
      2 O2         -3.8718   -2.3575   14.7067 O.3       1 UNK         0.0000 
      3 C3         -2.5253   -2.1086   14.8120 C.ar      1 UNK         0.0000 
      4 C4         -1.7526   -2.8682   15.6804 C.ar      1 UNK         0.0000 
      5 C5         -0.3955   -2.6067   15.8218 C.ar      1 UNK         0.0000 
      6 C6          0.2199   -1.5810   15.0999 C.ar      1 UNK         0.0000 
      7 N7          1.6019   -1.3576   15.3437 N.pl3     1 UNK         0.0000 
      8 C8          2.5286   -0.4382   14.7882 C.ar      1 UNK         0.0000 
      9 N9          2.1607    0.3911   13.7686 N.2       1 UNK         0.0000 
     10 C10         3.1048    1.2259   13.2324 C.ar      1 UNK         0.0000 
     11 C11         4.4053    1.2717   13.7035 C.ar      1 UNK         0.0000 
     12 N12         4.7404    0.4886   14.7629 N.pl3     1 UNK         0.0000 
     13 C13         5.8950    0.3907   15.4847 C.ar      1 UNK         0.0000 
     14 C14         5.6038   -0.5479   16.5103 C.ar      1 UNK         0.0000 
     15 N15         4.3901   -1.0599   16.3616 N.2       1 UNK         0.0000 
     16 C16         3.8363   -0.3960   15.3347 C.ar      1 UNK         0.0000 
     17 C17         2.6462    2.1273   12.1323 C.ar      1 UNK         0.0000 
     18 C18         3.5538    2.6360   11.1838 C.ar      1 UNK         0.0000 
     19 C19         3.1137    3.4699   10.1556 C.ar      1 UNK         0.0000 
     20 C20         1.7615    3.8212   10.0639 C.ar      1 UNK         0.0000 
     21 C21         1.3043    4.7272    8.9268 C.2       1 UNK         0.0000 
     22 O22         2.1134    5.3522    8.2339 O.2       1 UNK         0.0000 
     23 N23        -0.0095    4.7686    8.7196 N.am      1 UNK         0.0000 
     24 C24         0.8533    3.3219   11.0251 C.ar      1 UNK         0.0000 
     25 F25        -0.4584    3.6572   10.9807 F         1 UNK         0.0000 
     26 C26         1.2985    2.4859   12.0366 C.ar      1 UNK         0.0000 
     27 C27        -0.5548   -0.8117   14.1978 C.ar      1 UNK         0.0000 
     28 C28        -1.9397   -1.0798   14.0626 C.ar      1 UNK         0.0000 
     29 O29        -2.7418   -0.3359   13.2115 O.3       1 UNK         0.0000 
     30 C30        -2.2196    0.7089   12.4090 C.3       1 UNK         0.0000 
     31 H31        -5.3371   -3.2496   13.5811 H         1 UNK         0.0000 
     32 H32        -3.7876   -4.0927   13.5589 H         1 UNK         0.0000 
     33 H33        -4.0021   -2.5904   12.6387 H         1 UNK         0.0000 
     34 H34        -2.2126   -3.6572   16.2596 H         1 UNK         0.0000 
     35 H35         0.1938   -3.1989   16.5120 H         1 UNK         0.0000 
     36 H36         1.9968   -1.9524   16.0600 H         1 UNK         0.0000 
     37 H37         5.1643    1.9375   13.3203 H         1 UNK         0.0000 
     38 H38         6.7745    0.9863   15.2762 H         1 UNK         0.0000 
     39 H39         6.2506   -0.8438   17.3184 H         1 UNK         0.0000 
     40 H40         4.6006    2.3663   11.2383 H         1 UNK         0.0000 
     41 H41         3.8176    3.8358    9.4198 H         1 UNK         0.0000 
     42 H42        -0.3831    5.3154    7.9569 H         1 UNK         0.0000 
     43 H43        -0.6305    4.2313    9.2991 H         1 UNK         0.0000 
     44 H44         0.5971    2.1203   12.7706 H         1 UNK         0.0000 
     45 H45        -0.1130   -0.0200   13.6277 H         1 UNK         0.0000 
     46 H46        -3.0413    1.1202   11.8191 H         1 UNK         0.0000 
     47 H47        -1.4622    0.3434   11.7132 H         1 UNK         0.0000 
     48 H48        -1.8206    1.5118   13.0307 H         1 UNK         0.0000 
@<TRIPOS>BOND
     1    1    2 1    
     2    1   31 1    
     3    1   32 1    
     4    1   33 1    
     5    2    3 1    
     6    3    4 ar   
     7    3   28 ar   
     8    4    5 ar   
     9    4   34 1    
    10    5    6 ar   
    11    5   35 1    
    12    6    7 1    
    13    6   27 ar   
    14    7    8 1    
    15    7   36 1    
    16    8    9 ar   
    17    8   16 ar   
    18    9   10 ar   
    19   10   11 ar   
    20   10   17 1    
    21   11   12 ar   
    22   11   37 1    
    23   12   13 ar   
    24   12   16 ar   
    25   13   14 ar   
    26   13   38 1    
    27   14   15 ar   
    28   14   39 1    
    29   15   16 ar   
    30   17   18 ar   
    31   17   26 ar   
    32   18   19 ar   
    33   18   40 1    
    34   19   20 ar   
    35   19   41 1    
    36   20   21 1    
    37   20   24 ar   
    38   21   22 2    
    39   21   23 am   BACKBONE|DICT|INTERRES
    40   23   42 1    
    41   23   43 1    
    42   24   25 1    
    43   24   26 ar   
    44   26   44 1    
    45   27   28 ar   
    46   27   45 1    
    47   28   29 1    
    48   29   30 1    
    49   30   46 1    
    50   30   47 1    
    51   30   48 1    
@<TRIPOS>SUBSTRUCTURE
     1 UNK         1 GROUP             0       ****    0 ROOT    
