@<TRIPOS>MOLECULE
CHEMBL3265027
39   43    1
SMALL
USER_CHARGES


@<TRIPOS>ATOM
      1 N1          1.6124   -1.3917   15.3063 N.pl3     1 UNK         0.0000 
      2 C2          0.2249   -1.5978   15.0814 C.ar      1 UNK         0.0000 
      3 C3         -0.5442   -0.8150   14.1982 C.ar      1 UNK         0.0000 
      4 C4         -1.9142   -1.0738   14.0573 C.ar      1 UNK         0.0000 
      5 C5         -2.5121   -2.0998   14.7912 C.ar      1 UNK         0.0000 
      6 C6         -1.7536   -2.8696   15.6610 C.ar      1 UNK         0.0000 
      7 C7         -0.3955   -2.6216   15.8033 C.ar      1 UNK         0.0000 
      8 C8          2.5315   -0.4491   14.7651 C.ar      1 UNK         0.0000 
      9 N9          2.1583    0.3961   13.7551 N.2       1 UNK         0.0000 
     10 C10         3.0948    1.2419   13.2245 C.ar      1 UNK         0.0000 
     11 C11         4.4047    1.2813   13.6954 C.ar      1 UNK         0.0000 
     12 N12         4.7386    0.4915   14.7531 N.pl3     1 UNK         0.0000 
     13 C13         5.8960    0.3859   15.4809 C.ar      1 UNK         0.0000 
     14 C14         5.5970   -0.5411   16.5116 C.ar      1 UNK         0.0000 
     15 N15         4.3870   -1.0586   16.3541 N.2       1 UNK         0.0000 
     16 C16         3.8354   -0.3959   15.3220 C.ar      1 UNK         0.0000 
     17 C17         2.6241    2.1558   12.1223 C.ar      1 UNK         0.0000 
     18 C18         3.5409    2.6448   11.1668 C.ar      1 UNK         0.0000 
     19 C19         3.1526    3.4655   10.1090 C.ar      1 UNK         0.0000 
     20 C20         1.8070    3.8204   10.0137 C.ar      1 UNK         0.0000 
     21 C21         0.9973    4.6040    9.1190 C.ar      1 UNK         0.0000 
     22 N22        -0.2435    4.6079    9.5202 N.2       1 UNK         0.0000 
     23 N23        -0.3316    3.8816   10.6309 N.pl3     1 UNK         0.0000 
     24 C24         0.8832    3.3484   10.9943 C.ar      1 UNK         0.0000 
     25 C25         1.2619    2.5173   12.0545 C.ar      1 UNK         0.0000 
     26 H26         2.0176   -2.0162   15.9915 H         1 UNK         0.0000 
     27 H27        -0.1036   -0.0170   13.6342 H         1 UNK         0.0000 
     28 H28        -2.5121   -0.4793   13.3847 H         1 UNK         0.0000 
     29 H29        -3.5698   -2.2967   14.6864 H         1 UNK         0.0000 
     30 H30        -2.2195   -3.6606   16.2340 H         1 UNK         0.0000 
     31 H31         0.1884   -3.2203   16.4893 H         1 UNK         0.0000 
     32 H32         5.1658    1.9496   13.3207 H         1 UNK         0.0000 
     33 H33         6.7756    0.9786   15.2759 H         1 UNK         0.0000 
     34 H34         6.2399   -0.8270   17.3309 H         1 UNK         0.0000 
     35 H35         4.5780    2.3565   11.2387 H         1 UNK         0.0000 
     36 H36         3.8751    3.8096    9.3796 H         1 UNK         0.0000 
     37 H37         1.3042    5.1362    8.2332 H         1 UNK         0.0000 
     38 H38        -1.2186    3.7731   11.1004 H         1 UNK         0.0000 
     39 H39         0.5529    2.1690   12.7938 H         1 UNK         0.0000 
@<TRIPOS>BOND
     1    1    2 1    
     2    1    8 1    
     3    1   26 1    
     4    2    3 ar   
     5    2    7 ar   
     6    3    4 ar   
     7    3   27 1    
     8    4    5 ar   
     9    4   28 1    
    10    5    6 ar   
    11    5   29 1    
    12    6    7 ar   
    13    6   30 1    
    14    7   31 1    
    15    8    9 ar   
    16    8   16 ar   
    17    9   10 ar   
    18   10   11 ar   
    19   10   17 1    
    20   11   12 ar   
    21   11   32 1    
    22   12   13 ar   
    23   12   16 ar   
    24   13   14 ar   
    25   13   33 1    
    26   14   15 ar   
    27   14   34 1    
    28   15   16 ar   
    29   17   18 ar   
    30   17   25 ar   
    31   18   19 ar   
    32   18   35 1    
    33   19   20 ar   
    34   19   36 1    
    35   20   21 ar   
    36   20   24 ar   
    37   21   22 ar   
    38   21   37 1    
    39   22   23 ar   
    40   23   24 ar   
    41   23   38 1    
    42   24   25 ar   
    43   25   39 1    
@<TRIPOS>SUBSTRUCTURE
     1 UNK         1 GROUP             0       ****    0 ROOT    
