@<TRIPOS>MOLECULE
CHEMBL3265005
48   51    1
SMALL
USER_CHARGES


@<TRIPOS>ATOM
      1 C1         -4.2567   -3.1050   13.5684 C.3       1 UNK         0.0000 
      2 O2         -3.8734   -2.3611   14.7148 O.3       1 UNK         0.0000 
      3 C3         -2.5247   -2.1101   14.8166 C.ar      1 UNK         0.0000 
      4 C4         -1.7507   -2.8683   15.6828 C.ar      1 UNK         0.0000 
      5 C5         -0.3911   -2.6099   15.8185 C.ar      1 UNK         0.0000 
      6 C6          0.2170   -1.5863   15.0905 C.ar      1 UNK         0.0000 
      7 N7          1.6046   -1.3615   15.3286 N.pl3     1 UNK         0.0000 
      8 C8          2.5322   -0.4485   14.7676 C.ar      1 UNK         0.0000 
      9 N9          2.1746    0.3813   13.7360 N.2       1 UNK         0.0000 
     10 C10         3.1152    1.2349   13.2220 C.ar      1 UNK         0.0000 
     11 C11         4.4162    1.2784   13.7032 C.ar      1 UNK         0.0000 
     12 N12         4.7450    0.4849   14.7598 N.pl3     1 UNK         0.0000 
     13 C13         5.8984    0.3795   15.4856 C.ar      1 UNK         0.0000 
     14 C14         5.5934   -0.5343   16.5244 C.ar      1 UNK         0.0000 
     15 N15         4.3805   -1.0504   16.3702 N.2       1 UNK         0.0000 
     16 C16         3.8378   -0.3985   15.3258 C.ar      1 UNK         0.0000 
     17 C17         2.6545    2.1505   12.1229 C.ar      1 UNK         0.0000 
     18 C18         3.5650    2.6332   11.1660 C.ar      1 UNK         0.0000 
     19 C19         3.1279    3.4532   10.1263 C.ar      1 UNK         0.0000 
     20 C20         1.7853    3.8163   10.0263 C.ar      1 UNK         0.0000 
     21 C21         0.8655    3.3670   10.9906 C.ar      1 UNK         0.0000 
     22 C22         1.3076    2.5389   12.0352 C.ar      1 UNK         0.0000 
     23 C23        -0.6125    3.7616   10.9140 C.2       1 UNK         0.0000 
     24 O24        -1.4124    3.3703   11.7502 O.2       1 UNK         0.0000 
     25 N25        -0.9623    4.5440    9.8958 N.am      1 UNK         0.0000 
     26 C26        -0.5525   -0.8154   14.1926 C.ar      1 UNK         0.0000 
     27 C27        -1.9431   -1.0889   14.0634 C.ar      1 UNK         0.0000 
     28 O28        -2.7491   -0.3514   13.2105 O.3       1 UNK         0.0000 
     29 C29        -2.2119    0.5324   12.2516 C.3       1 UNK         0.0000 
     30 H30        -5.3371   -3.2473   13.5828 H         1 UNK         0.0000 
     31 H31        -3.7923   -4.0918   13.5617 H         1 UNK         0.0000 
     32 H32        -4.0053   -2.5854   12.6423 H         1 UNK         0.0000 
     33 H33        -2.2045   -3.6577   16.2649 H         1 UNK         0.0000 
     34 H34         0.1939   -3.2023   16.5060 H         1 UNK         0.0000 
     35 H35         1.9934   -1.9429   16.0579 H         1 UNK         0.0000 
     36 H36         5.1774    1.9554   13.3408 H         1 UNK         0.0000 
     37 H37         6.7817    0.9624   15.2771 H         1 UNK         0.0000 
     38 H38         6.2343   -0.8101   17.3474 H         1 UNK         0.0000 
     39 H39         4.6048    2.3502   11.2176 H         1 UNK         0.0000 
     40 H40         3.8359    3.8027    9.3872 H         1 UNK         0.0000 
     41 H41         1.4656    4.4411    9.2087 H         1 UNK         0.0000 
     42 H42         0.6085    2.2013   12.7854 H         1 UNK         0.0000 
     43 H43        -1.9282    4.8274    9.7978 H         1 UNK         0.0000 
     44 H44        -0.2850    4.8642    9.2301 H         1 UNK         0.0000 
     45 H45        -0.1105   -0.0248   13.6275 H         1 UNK         0.0000 
     46 H46        -3.0285    0.9892   11.6884 H         1 UNK         0.0000 
     47 H47        -1.5629    0.0226   11.5419 H         1 UNK         0.0000 
     48 H48        -1.6668    1.3176   12.7602 H         1 UNK         0.0000 
@<TRIPOS>BOND
     1    1    2 1    
     2    1   30 1    
     3    1   31 1    
     4    1   32 1    
     5    2    3 1    
     6    3    4 ar   
     7    3   27 ar   
     8    4    5 ar   
     9    4   33 1    
    10    5    6 ar   
    11    5   34 1    
    12    6    7 1    
    13    6   26 ar   
    14    7    8 1    
    15    7   35 1    
    16    8    9 ar   
    17    8   16 ar   
    18    9   10 ar   
    19   10   11 ar   
    20   10   17 1    
    21   11   12 ar   
    22   11   36 1    
    23   12   13 ar   
    24   12   16 ar   
    25   13   14 ar   
    26   13   37 1    
    27   14   15 ar   
    28   14   38 1    
    29   15   16 ar   
    30   17   18 ar   
    31   17   22 ar   
    32   18   19 ar   
    33   18   39 1    
    34   19   20 ar   
    35   19   40 1    
    36   20   21 ar   
    37   20   41 1    
    38   21   22 ar   
    39   21   23 1    
    40   22   42 1    
    41   23   24 2    
    42   23   25 am   BACKBONE|DICT|INTERRES
    43   25   43 1    
    44   25   44 1    
    45   26   27 ar   
    46   26   45 1    
    47   27   28 1    
    48   28   29 1    
    49   29   46 1    
    50   29   47 1    
    51   29   48 1    
@<TRIPOS>SUBSTRUCTURE
     1 UNK         1 GROUP             0       ****    0 ROOT    
