@<TRIPOS>MOLECULE
CHEMBL3265017
47   51    1
SMALL
USER_CHARGES


@<TRIPOS>ATOM
      1 C1         -4.2568   -3.1045   13.5692 C.3       1 UNK         0.0000 
      2 O2         -3.8735   -2.3609   14.7157 O.3       1 UNK         0.0000 
      3 C3         -2.5254   -2.1112   14.8167 C.ar      1 UNK         0.0000 
      4 C4         -1.7461   -2.8700   15.6816 C.ar      1 UNK         0.0000 
      5 C5         -0.3903   -2.6103   15.8137 C.ar      1 UNK         0.0000 
      6 C6          0.2206   -1.5848   15.0868 C.ar      1 UNK         0.0000 
      7 N7          1.6038   -1.3598   15.3228 N.pl3     1 UNK         0.0000 
      8 C8          2.5359   -0.4458   14.7609 C.ar      1 UNK         0.0000 
      9 N9          2.1794    0.3745   13.7258 N.2       1 UNK         0.0000 
     10 C10         3.1126    1.2387   13.2174 C.ar      1 UNK         0.0000 
     11 C11         4.4180    1.2838   13.7013 C.ar      1 UNK         0.0000 
     12 N12         4.7460    0.4885   14.7593 N.pl3     1 UNK         0.0000 
     13 C13         5.8978    0.3783   15.4862 C.ar      1 UNK         0.0000 
     14 C14         5.5892   -0.5252   16.5282 C.ar      1 UNK         0.0000 
     15 N15         4.3768   -1.0429   16.3726 N.2       1 UNK         0.0000 
     16 C16         3.8366   -0.3928   15.3256 C.ar      1 UNK         0.0000 
     17 C17         2.6368    2.1616   12.1201 C.ar      1 UNK         0.0000 
     18 C18         3.5454    2.6408   11.1618 C.ar      1 UNK         0.0000 
     19 C19         3.1453    3.4625   10.1097 C.ar      1 UNK         0.0000 
     20 C20         1.7994    3.8163   10.0176 C.ar      1 UNK         0.0000 
     21 C21         0.9914    4.5941    9.1197 C.ar      1 UNK         0.0000 
     22 N22        -0.2494    4.6053    9.5133 N.2       1 UNK         0.0000 
     23 N23        -0.3372    3.8935   10.6271 N.pl3     1 UNK         0.0000 
     24 C24         0.8851    3.3607   10.9950 C.ar      1 UNK         0.0000 
     25 C25         1.2726    2.5413   12.0626 C.ar      1 UNK         0.0000 
     26 C26        -0.5549   -0.8187   14.1915 C.ar      1 UNK         0.0000 
     27 C27        -1.9439   -1.0882   14.0610 C.ar      1 UNK         0.0000 
     28 O28        -2.7521   -0.3548   13.2056 O.3       1 UNK         0.0000 
     29 C29        -2.2313    0.6456   12.3518 C.3       1 UNK         0.0000 
     30 H30        -5.3359   -3.2524   13.5865 H         1 UNK         0.0000 
     31 H31        -3.7887   -4.0896   13.5588 H         1 UNK         0.0000 
     32 H32        -4.0122   -2.5810   12.6435 H         1 UNK         0.0000 
     33 H33        -2.1953   -3.6619   16.2627 H         1 UNK         0.0000 
     34 H34         0.1988   -3.2059   16.4986 H         1 UNK         0.0000 
     35 H35         1.9915   -1.9358   16.0538 H         1 UNK         0.0000 
     36 H36         5.1799    1.9624   13.3414 H         1 UNK         0.0000 
     37 H37         6.7849    0.9516   15.2761 H         1 UNK         0.0000 
     38 H38         6.2311   -0.7975   17.3512 H         1 UNK         0.0000 
     39 H39         4.5870    2.3473   11.2231 H         1 UNK         0.0000 
     40 H40         3.8550    3.8058    9.3820 H         1 UNK         0.0000 
     41 H41         1.3018    5.1155    8.2351 H         1 UNK         0.0000 
     42 H42        -1.2265    3.7931   11.0919 H         1 UNK         0.0000 
     43 H43         0.5730    2.2156   12.8045 H         1 UNK         0.0000 
     44 H44        -0.1088   -0.0311   13.6242 H         1 UNK         0.0000 
     45 H45        -3.0501    1.0729   11.7701 H         1 UNK         0.0000 
     46 H46        -1.5087    0.2343   11.6493 H         1 UNK         0.0000 
     47 H47        -1.7811    1.4509   12.9278 H         1 UNK         0.0000 
@<TRIPOS>BOND
     1    1    2 1    
     2    1   30 1    
     3    1   31 1    
     4    1   32 1    
     5    2    3 1    
     6    3    4 ar   
     7    3   27 ar   
     8    4    5 ar   
     9    4   33 1    
    10    5    6 ar   
    11    5   34 1    
    12    6    7 1    
    13    6   26 ar   
    14    7    8 1    
    15    7   35 1    
    16    8    9 ar   
    17    8   16 ar   
    18    9   10 ar   
    19   10   11 ar   
    20   10   17 1    
    21   11   12 ar   
    22   11   36 1    
    23   12   13 ar   
    24   12   16 ar   
    25   13   14 ar   
    26   13   37 1    
    27   14   15 ar   
    28   14   38 1    
    29   15   16 ar   
    30   17   18 ar   
    31   17   25 ar   
    32   18   19 ar   
    33   18   39 1    
    34   19   20 ar   
    35   19   40 1    
    36   20   21 ar   
    37   20   24 ar   
    38   21   22 ar   
    39   21   41 1    
    40   22   23 ar   
    41   23   24 ar   
    42   23   42 1    
    43   24   25 ar   
    44   25   43 1    
    45   26   27 ar   
    46   26   44 1    
    47   27   28 1    
    48   28   29 1    
    49   29   45 1    
    50   29   46 1    
    51   29   47 1    
@<TRIPOS>SUBSTRUCTURE
     1 UNK         1 GROUP             0       ****    0 ROOT    
