
                    3D
 Schrodinger Suite 2020-3.
 60 64  0  0  1  0            999 V2000
   -4.2550   -3.1030   13.5710 C   0  0  0  0  0  0
   -3.8740   -2.3530   14.7170 O   0  0  0  0  0  0
   -2.5260   -2.1060   14.8050 C   0  0  3  0  0  0
   -1.7500   -2.8670   15.6800 C   0  0  0  0  0  0
   -0.3860   -2.6110   15.8150 C   0  0  0  0  0  0
    0.2220   -1.5830   15.0890 C   0  0  3  0  0  0
    1.5930   -1.3490   15.3060 N   0  0  3  0  0  0
    2.5450   -0.4690   14.7540 C   0  0  3  0  0  0
    2.2180    0.3550   13.7190 N   0  0  0  0  0  0
    3.1230    1.2410   13.2180 C   0  0  3  0  0  0
    4.4210    1.3040   13.7170 C   0  0  0  0  0  0
    4.7480    0.4920   14.7650 N   0  0  3  0  0  0
    5.8900    0.3840   15.5040 C   0  0  0  0  0  0
    5.5720   -0.5090   16.5180 C   0  0  0  0  0  0
    4.3820   -1.0540   16.3920 N   0  0  0  0  0  0
    3.8330   -0.4170   15.3250 C   0  0  3  0  0  0
    2.6560    2.1560   12.1340 C   0  0  3  0  0  0
    3.5570    2.6280   11.1670 C   0  0  0  0  0  0
    3.1290    3.4500   10.1280 C   0  0  0  0  0  0
    1.7880    3.8080   10.0320 C   0  0  0  0  0  0
    0.8660    3.3710   10.9890 C   0  0  3  0  0  0
    1.3140    2.5580   12.0420 C   0  0  0  0  0  0
   -0.5780    3.7650   10.8960 C   0  0  3  0  0  0
   -1.2610    3.7180    9.8770 O   0  0  0  0  0  0
   -1.0550    4.1830   12.0680 N   0  0  3  0  0  0
   -2.4210    4.6360   12.3150 C   0  0  3  0  0  0
   -2.7020    5.4230   13.4260 C   0  0  0  0  0  0
   -4.0030    5.8540   13.6610 C   0  0  0  0  0  0
   -5.0210    5.4990   12.7850 C   0  0  0  0  0  0
   -4.7400    4.7120   11.6740 C   0  0  3  0  0  0
   -3.4400    4.2810   11.4390 C   0  0  0  0  0  0
   -5.8400    4.3290   10.7290 C   0  0  0  0  0  0
   -5.6120    3.6280    9.7320 O   0  0  0  0  0  0
   -6.9850    4.7350   10.9770 O   0  0  0  0  0  0
   -0.5660   -0.8260   14.2110 C   0  0  0  0  0  0
   -1.9390   -1.0760   14.0580 C   0  0  3  0  0  0
   -2.6990   -0.3050   13.2020 O   0  0  0  0  0  0
   -2.0020    0.6750   12.5250 C   0  0  0  0  0  0
   -3.7530   -4.0710   13.5510 H   0  0  0  0  0  0
   -4.0180   -2.5670   12.6500 H   0  0  0  0  0  0
   -5.3310   -3.2810   13.5890 H   0  0  0  0  0  0
   -2.2100   -3.6530   16.2610 H   0  0  0  0  0  0
    0.1910   -3.2100   16.5030 H   0  0  0  0  0  0
    2.0250   -1.8860   16.0470 H   0  0  0  0  0  0
    5.1700    2.0030   13.3720 H   0  0  0  0  0  0
    6.7660    0.9740   15.2900 H   0  0  0  0  0  0
    6.2090   -0.8330   17.3300 H   0  0  0  0  0  0
    4.5930    2.3310   11.2000 H   0  0  0  0  0  0
    3.8340    3.7940    9.3840 H   0  0  0  0  0  0
    1.4560    4.4350    9.2170 H   0  0  0  0  0  0
    0.6050    2.2130   12.7810 H   0  0  0  0  0  0
   -0.5300    4.2380   12.9290 H   0  0  0  0  0  0
   -1.9090    5.6990   14.1080 H   0  0  0  0  0  0
   -4.2220    6.4660   14.5250 H   0  0  0  0  0  0
   -6.0340    5.8350   12.9680 H   0  0  0  0  0  0
   -3.2210    3.6680   10.5740 H   0  0  0  0  0  0
   -0.1550   -0.0170   13.6340 H   0  0  0  0  0  0
   -2.6850    1.2260   11.8790 H   0  0  0  0  0  0
   -1.2220    0.2130   11.9200 H   0  0  0  0  0  0
   -1.5480    1.3590   13.2420 H   0  0  0  0  0  0
  1  2  1  0  0  0
  1 39  1  0  0  0
  1 40  1  0  0  0
  1 41  1  0  0  0
  2  3  1  0  0  0
  3  4  1  0  0  0
  3 36  1  0  0  0
  4  5  1  0  0  0
  4 42  1  0  0  0
  5  6  1  0  0  0
  5 43  1  0  0  0
  6  7  1  0  0  0
  6 35  1  0  0  0
  7  8  1  0  0  0
  7 44  1  0  0  0
  8  9  1  0  0  0
  8 16  1  0  0  0
  9 10  1  0  0  0
 10 11  1  0  0  0
 10 17  1  0  0  0
 11 12  1  0  0  0
 11 45  1  0  0  0
 12 13  1  0  0  0
 12 16  1  0  0  0
 13 14  1  0  0  0
 13 46  1  0  0  0
 14 15  1  0  0  0
 14 47  1  0  0  0
 15 16  1  0  0  0
 17 18  1  0  0  0
 17 22  1  0  0  0
 18 19  1  0  0  0
 18 48  1  0  0  0
 19 20  1  0  0  0
 19 49  1  0  0  0
 20 21  1  0  0  0
 20 50  1  0  0  0
 21 22  1  0  0  0
 21 23  1  0  0  0
 22 51  1  0  0  0
 23 24  1  0  0  0
 23 25  1  0  0  0
 25 26  1  0  0  0
 25 52  1  0  0  0
 26 27  1  0  0  0
 26 31  1  0  0  0
 27 28  1  0  0  0
 27 53  1  0  0  0
 28 29  1  0  0  0
 28 54  1  0  0  0
 29 30  1  0  0  0
 29 55  1  0  0  0
 30 31  1  0  0  0
 30 32  1  0  0  0
 31 56  1  0  0  0
 32 33  1  0  0  0
 32 34  1  0  0  0
 35 36  1  0  0  0
 35 57  1  0  0  0
 36 37  1  0  0  0
 37 38  1  0  0  0
 38 58  1  0  0  0
 38 59  1  0  0  0
 38 60  1  0  0  0
M  END
> <s_pdb_PDB_TITLE>
MX MODEL

> <i_pdb_PDB_Model>
1

> <s_pdb_PDB_format_version>
3.0

$$$$
