@<TRIPOS>MOLECULE
CHEMBL3265011
51   54    1
SMALL
USER_CHARGES


@<TRIPOS>ATOM
      1 C1         -4.2555   -3.1029   13.5707 C.3       1 UNK         0.0000 
      2 O2         -3.8740   -2.3535   14.7166 O.3       1 UNK         0.0000 
      3 C3         -2.5261   -2.1057   14.8053 C.ar      1 UNK         0.0000 
      4 C4         -1.7497   -2.8673   15.6804 C.ar      1 UNK         0.0000 
      5 C5         -0.3863   -2.6106   15.8150 C.ar      1 UNK         0.0000 
      6 C6          0.2220   -1.5829   15.0890 C.ar      1 UNK         0.0000 
      7 N7          1.5930   -1.3491   15.3060 N.pl3     1 UNK         0.0000 
      8 C8          2.5452   -0.4689   14.7536 C.ar      1 UNK         0.0000 
      9 N9          2.2178    0.3551   13.7190 N.2       1 UNK         0.0000 
     10 C10         3.1227    1.2406   13.2181 C.ar      1 UNK         0.0000 
     11 C11         4.4207    1.3039   13.7175 C.ar      1 UNK         0.0000 
     12 N12         4.7482    0.4921   14.7654 N.pl3     1 UNK         0.0000 
     13 C13         5.8898    0.3836   15.5035 C.ar      1 UNK         0.0000 
     14 C14         5.5715   -0.5089   16.5177 C.ar      1 UNK         0.0000 
     15 N15         4.3818   -1.0543   16.3920 N.2       1 UNK         0.0000 
     16 C16         3.8330   -0.4170   15.3252 C.ar      1 UNK         0.0000 
     17 C17         2.6564    2.1560   12.1340 C.ar      1 UNK         0.0000 
     18 C18         1.3140    2.5576   12.0419 C.ar      1 UNK         0.0000 
     19 C19         0.8660    3.3707   10.9895 C.ar      1 UNK         0.0000 
     20 C20         1.7879    3.8078   10.0318 C.ar      1 UNK         0.0000 
     21 C21         3.1294    3.4499   10.1277 C.ar      1 UNK         0.0000 
     22 C22         3.5566    2.6280   11.1666 C.ar      1 UNK         0.0000 
     23 C23         4.9972    2.2126   11.2105 C.3       1 UNK         0.0000 
     24 C24        -0.5881    3.7303   10.8428 C.2       1 UNK         0.0000 
     25 O25        -1.1092    3.7021    9.7263 O.2       1 UNK         0.0000 
     26 N26        -1.2179    4.0963   11.9826 N.am      1 UNK         0.0000 
     27 C27        -0.5664   -0.8256   14.2115 C.ar      1 UNK         0.0000 
     28 C28        -1.9389   -1.0760   14.0580 C.ar      1 UNK         0.0000 
     29 O29        -2.6987   -0.3081   13.1992 O.3       1 UNK         0.0000 
     30 C30        -2.0021    0.6722   12.5223 C.3       1 UNK         0.0000 
     31 H31        -5.3290   -3.2895   13.5939 H         1 UNK         0.0000 
     32 H32        -3.7452   -4.0667   13.5449 H         1 UNK         0.0000 
     33 H33        -4.0270   -2.5627   12.6510 H         1 UNK         0.0000 
     34 H34        -2.2099   -3.6533   16.2602 H         1 UNK         0.0000 
     35 H35         0.1911   -3.2106   16.5025 H         1 UNK         0.0000 
     36 H36         2.0257   -1.8895   16.0445 H         1 UNK         0.0000 
     37 H37         5.1717    2.0006   13.3700 H         1 UNK         0.0000 
     38 H38         6.7663    0.9729   15.2892 H         1 UNK         0.0000 
     39 H39         6.2094   -0.8335   17.3296 H         1 UNK         0.0000 
     40 H40         0.6068    2.1879   12.7700 H         1 UNK         0.0000 
     41 H41         1.4521    4.4207    9.2063 H         1 UNK         0.0000 
     42 H42         3.8319    3.7891    9.3801 H         1 UNK         0.0000 
     43 H43         5.5347    2.6775   10.3840 H         1 UNK         0.0000 
     44 H44         5.0655    1.1282   11.1241 H         1 UNK         0.0000 
     45 H45         5.4384    2.5303   12.1552 H         1 UNK         0.0000 
     46 H46        -2.1896    4.3530   11.9274 H         1 UNK         0.0000 
     47 H47        -0.7063    4.1173   12.8487 H         1 UNK         0.0000 
     48 H48        -0.1540   -0.0199   13.6303 H         1 UNK         0.0000 
     49 H49        -2.6849    1.2208   11.8735 H         1 UNK         0.0000 
     50 H50        -1.2195    0.2114   11.9195 H         1 UNK         0.0000 
     51 H51        -1.5517    1.3587   13.2392 H         1 UNK         0.0000 
@<TRIPOS>BOND
     1    1    2 1    
     2    1   31 1    
     3    1   32 1    
     4    1   33 1    
     5    2    3 1    
     6    3    4 ar   
     7    3   28 ar   
     8    4    5 ar   
     9    4   34 1    
    10    5    6 ar   
    11    5   35 1    
    12    6    7 1    
    13    6   27 ar   
    14    7    8 1    
    15    7   36 1    
    16    8    9 ar   
    17    8   16 ar   
    18    9   10 ar   
    19   10   11 ar   
    20   10   17 1    
    21   11   12 ar   
    22   11   37 1    
    23   12   13 ar   
    24   12   16 ar   
    25   13   14 ar   
    26   13   38 1    
    27   14   15 ar   
    28   14   39 1    
    29   15   16 ar   
    30   17   18 ar   
    31   17   22 ar   
    32   18   19 ar   
    33   18   40 1    
    34   19   20 ar   
    35   19   24 1    
    36   20   21 ar   
    37   20   41 1    
    38   21   22 ar   
    39   21   42 1    
    40   22   23 1    
    41   23   43 1    
    42   23   44 1    
    43   23   45 1    
    44   24   25 2    
    45   24   26 am   BACKBONE|DICT|INTERRES
    46   26   46 1    
    47   26   47 1    
    48   27   28 ar   
    49   27   48 1    
    50   28   29 1    
    51   29   30 1    
    52   30   49 1    
    53   30   50 1    
    54   30   51 1    
@<TRIPOS>SUBSTRUCTURE
     1 UNK         1 GROUP             0       ****    0 ROOT    
