@<TRIPOS>MOLECULE
CHEMBL3265028
43   47    1
SMALL
USER_CHARGES


@<TRIPOS>ATOM
      1 C1         -1.9509    0.6794   12.3551 C.3       1 UNK         0.0000 
      2 O2         -2.6175   -0.2972   13.1574 O.3       1 UNK         0.0000 
      3 C3         -1.8696   -1.0545   14.0449 C.ar      1 UNK         0.0000 
      4 C4         -2.5006   -2.0822   14.7698 C.ar      1 UNK         0.0000 
      5 C5         -1.7540   -2.8524   15.6585 C.ar      1 UNK         0.0000 
      6 C6         -0.3950   -2.6038   15.8322 C.ar      1 UNK         0.0000 
      7 C7          0.2324   -1.5851   15.1260 C.ar      1 UNK         0.0000 
      8 N8          1.6168   -1.3648   15.3699 N.pl3     1 UNK         0.0000 
      9 C9          2.5420   -0.4570   14.7968 C.ar      1 UNK         0.0000 
     10 N10         2.1720    0.3831   13.7786 N.2       1 UNK         0.0000 
     11 C11         3.1103    1.2383   13.2419 C.ar      1 UNK         0.0000 
     12 C12         4.3968    1.2792   13.7037 C.ar      1 UNK         0.0000 
     13 N13         4.7381    0.4944   14.7692 N.pl3     1 UNK         0.0000 
     14 C14         5.8928    0.3893   15.4752 C.ar      1 UNK         0.0000 
     15 C15         5.6110   -0.5494   16.5068 C.ar      1 UNK         0.0000 
     16 N16         4.4002   -1.0741   16.3612 N.2       1 UNK         0.0000 
     17 C17         3.8444   -0.3918   15.3407 C.ar      1 UNK         0.0000 
     18 C18         2.6282    2.1384   12.1226 C.ar      1 UNK         0.0000 
     19 C19         3.5442    2.6282   11.1721 C.ar      1 UNK         0.0000 
     20 C20         3.1497    3.4552   10.1130 C.ar      1 UNK         0.0000 
     21 C21         1.8035    3.8107   10.0226 C.ar      1 UNK         0.0000 
     22 C22         0.9910    4.6054    9.1269 C.ar      1 UNK         0.0000 
     23 N23        -0.2498    4.6130    9.5297 N.2       1 UNK         0.0000 
     24 N24        -0.3276    3.8827   10.6287 N.pl3     1 UNK         0.0000 
     25 C25         0.8922    3.3455   10.9868 C.ar      1 UNK         0.0000 
     26 C26         1.2628    2.5119   12.0466 C.ar      1 UNK         0.0000 
     27 C27        -0.5121   -0.8124   14.2226 C.ar      1 UNK         0.0000 
     28 H28        -2.6470    1.2080   11.7073 H         1 UNK         0.0000 
     29 H29        -1.2045    0.2004   11.7318 H         1 UNK         0.0000 
     30 H30        -1.4794    1.4174   12.9913 H         1 UNK         0.0000 
     31 H31        -3.5460   -2.2812   14.6470 H         1 UNK         0.0000 
     32 H32        -2.2312   -3.6425   16.2160 H         1 UNK         0.0000 
     33 H33         0.1711   -3.2085   16.5377 H         1 UNK         0.0000 
     34 H34         1.9989   -1.9290   16.1054 H         1 UNK         0.0000 
     35 H35         5.1566    1.9436   13.3074 H         1 UNK         0.0000 
     36 H36         6.7779    0.9754   15.2698 H         1 UNK         0.0000 
     37 H37         6.2564   -0.8382   17.2944 H         1 UNK         0.0000 
     38 H38         4.5845    2.3474   11.2386 H         1 UNK         0.0000 
     39 H39         3.8685    3.8054    9.3873 H         1 UNK         0.0000 
     40 H40         1.3045    5.1360    8.2411 H         1 UNK         0.0000 
     41 H41        -1.2156    3.7788   11.0960 H         1 UNK         0.0000 
     42 H42         0.5640    2.1751   12.7727 H         1 UNK         0.0000 
     43 H43        -0.0605   -0.0305   13.6582 H         1 UNK         0.0000 
@<TRIPOS>BOND
     1    1    2 1    
     2    1   28 1    
     3    1   29 1    
     4    1   30 1    
     5    2    3 1    
     6    3    4 ar   
     7    3   27 ar   
     8    4    5 ar   
     9    4   31 1    
    10    5    6 ar   
    11    5   32 1    
    12    6    7 ar   
    13    6   33 1    
    14    7    8 1    
    15    7   27 ar   
    16    8    9 1    
    17    8   34 1    
    18    9   10 ar   
    19    9   17 ar   
    20   10   11 ar   
    21   11   12 ar   
    22   11   18 1    
    23   12   13 ar   
    24   12   35 1    
    25   13   14 ar   
    26   13   17 ar   
    27   14   15 ar   
    28   14   36 1    
    29   15   16 ar   
    30   15   37 1    
    31   16   17 ar   
    32   18   19 ar   
    33   18   26 ar   
    34   19   20 ar   
    35   19   38 1    
    36   20   21 ar   
    37   20   39 1    
    38   21   22 ar   
    39   21   25 ar   
    40   22   23 ar   
    41   22   40 1    
    42   23   24 ar   
    43   24   25 ar   
    44   24   41 1    
    45   25   26 ar   
    46   26   42 1    
    47   27   43 1    
@<TRIPOS>SUBSTRUCTURE
     1 UNK         1 GROUP             0       ****    0 ROOT    
