@<TRIPOS>MOLECULE
CHEMBL3265008
48   51    1
SMALL
USER_CHARGES


@<TRIPOS>ATOM
      1 C1         -4.2555   -3.1029   13.5707 C.3       1 UNK         0.0000 
      2 O2         -3.8740   -2.3535   14.7166 O.3       1 UNK         0.0000 
      3 C3         -2.5261   -2.1057   14.8053 C.ar      1 UNK         0.0000 
      4 C4         -1.7497   -2.8673   15.6804 C.ar      1 UNK         0.0000 
      5 C5         -0.3863   -2.6106   15.8150 C.ar      1 UNK         0.0000 
      6 C6          0.2220   -1.5829   15.0890 C.ar      1 UNK         0.0000 
      7 N7          1.5930   -1.3491   15.3060 N.pl3     1 UNK         0.0000 
      8 C8          2.5452   -0.4689   14.7536 C.ar      1 UNK         0.0000 
      9 N9          2.2178    0.3551   13.7190 N.2       1 UNK         0.0000 
     10 C10         3.1227    1.2406   13.2181 C.ar      1 UNK         0.0000 
     11 C11         4.4207    1.3039   13.7175 C.ar      1 UNK         0.0000 
     12 N12         4.7482    0.4921   14.7654 N.pl3     1 UNK         0.0000 
     13 C13         5.8898    0.3836   15.5035 C.ar      1 UNK         0.0000 
     14 C14         5.5715   -0.5089   16.5177 C.ar      1 UNK         0.0000 
     15 N15         4.3818   -1.0543   16.3920 N.2       1 UNK         0.0000 
     16 C16         3.8330   -0.4170   15.3252 C.ar      1 UNK         0.0000 
     17 C17         2.6564    2.1560   12.1340 C.ar      1 UNK         0.0000 
     18 C18         3.5566    2.6280   11.1666 C.ar      1 UNK         0.0000 
     19 C19         3.1294    3.4499   10.1277 C.ar      1 UNK         0.0000 
     20 C20         1.7879    3.8078   10.0318 C.ar      1 UNK         0.0000 
     21 F21         1.3747    4.5939    9.0109 F         1 UNK         0.0000 
     22 C22         0.8660    3.3707   10.9895 C.ar      1 UNK         0.0000 
     23 C23         1.3140    2.5576   12.0419 C.ar      1 UNK         0.0000 
     24 C24        -0.5765    3.7694   10.8883 C.2       1 UNK         0.0000 
     25 O25        -1.4448    3.1424   10.2886 O.2       1 UNK         0.0000 
     26 N26        -0.8228    4.9083   11.5365 N.am      1 UNK         0.0000 
     27 C27        -0.5664   -0.8256   14.2115 C.ar      1 UNK         0.0000 
     28 C28        -1.9389   -1.0760   14.0580 C.ar      1 UNK         0.0000 
     29 O29        -2.6996   -0.3055   13.2024 O.3       1 UNK         0.0000 
     30 C30        -2.0030    0.6746   12.5250 C.3       1 UNK         0.0000 
     31 H31        -5.3279   -3.2950   13.5978 H         1 UNK         0.0000 
     32 H32        -3.7404   -4.0640   13.5409 H         1 UNK         0.0000 
     33 H33        -4.0334   -2.5595   12.6514 H         1 UNK         0.0000 
     34 H34        -2.2101   -3.6528   16.2607 H         1 UNK         0.0000 
     35 H35         0.1909   -3.2102   16.5030 H         1 UNK         0.0000 
     36 H36         2.0243   -1.8859   16.0479 H         1 UNK         0.0000 
     37 H37         5.1721    2.0017   13.3734 H         1 UNK         0.0000 
     38 H38         6.7662    0.9734   15.2903 H         1 UNK         0.0000 
     39 H39         6.2091   -0.8330   17.3299 H         1 UNK         0.0000 
     40 H40         4.5936    2.3316   11.1997 H         1 UNK         0.0000 
     41 H41         3.8293    3.7971    9.3821 H         1 UNK         0.0000 
     42 H42         0.6045    2.2130   12.7803 H         1 UNK         0.0000 
     43 H43        -1.7221    5.3634   11.6017 H         1 UNK         0.0000 
     44 H44        -0.1401    5.4552   12.0414 H         1 UNK         0.0000 
     45 H45        -0.1548   -0.0169   13.6338 H         1 UNK         0.0000 
     46 H46        -2.6866    1.2254   11.8789 H         1 UNK         0.0000 
     47 H47        -1.2230    0.2132   11.9195 H         1 UNK         0.0000 
     48 H48        -1.5495    1.3592   13.2418 H         1 UNK         0.0000 
@<TRIPOS>BOND
     1    1    2 1    
     2    1   31 1    
     3    1   32 1    
     4    1   33 1    
     5    2    3 1    
     6    3    4 ar   
     7    3   28 ar   
     8    4    5 ar   
     9    4   34 1    
    10    5    6 ar   
    11    5   35 1    
    12    6    7 1    
    13    6   27 ar   
    14    7    8 1    
    15    7   36 1    
    16    8    9 ar   
    17    8   16 ar   
    18    9   10 ar   
    19   10   11 ar   
    20   10   17 1    
    21   11   12 ar   
    22   11   37 1    
    23   12   13 ar   
    24   12   16 ar   
    25   13   14 ar   
    26   13   38 1    
    27   14   15 ar   
    28   14   39 1    
    29   15   16 ar   
    30   17   18 ar   
    31   17   23 ar   
    32   18   19 ar   
    33   18   40 1    
    34   19   20 ar   
    35   19   41 1    
    36   20   21 1    
    37   20   22 ar   
    38   22   23 ar   
    39   22   24 1    
    40   23   42 1    
    41   24   25 2    
    42   24   26 am   BACKBONE|DICT|INTERRES
    43   26   43 1    
    44   26   44 1    
    45   27   28 ar   
    46   27   45 1    
    47   28   29 1    
    48   29   30 1    
    49   30   46 1    
    50   30   47 1    
    51   30   48 1    
@<TRIPOS>SUBSTRUCTURE
     1 UNK         1 GROUP             0       ****    0 ROOT    
