@<TRIPOS>MOLECULE
63
44   48    1
SMALL
USER_CHARGES


@<TRIPOS>ATOM
      1 C1         92.5635   47.3408  266.4808 C.ar      1 UNK         0.0000 
      2 C2         91.6075   48.3335  266.6743 C.ar      1 UNK         0.0000 
      3 C3         91.9695   49.5319  267.2848 C.ar      1 UNK         0.0000 
      4 C4         93.2834   49.7950  267.6878 C.ar      1 UNK         0.0000 
      5 C5         93.8922   47.5381  266.9103 C.ar      1 UNK         0.0000 
      6 C6         94.2715   48.7791  267.5122 C.ar      1 UNK         0.0000 
      7 N7         95.5600   48.9654  267.9352 N.ar      1 UNK         0.0000 
      8 C8         96.4479   47.9572  267.7463 C.ar      1 UNK         0.0000 
      9 C9         96.0599   46.7469  267.1846 C.ar      1 UNK         0.0000 
     10 N10        94.7947   46.5302  266.7602 N.ar      1 UNK         0.0000 
     11 C11        93.5954   51.0976  268.3318 C.ar      1 UNK         0.0000 
     12 N12        90.2720   48.1244  266.3145 N.pl3     1 UNK         0.0000 
     13 C13        94.5752   51.9450  267.7933 C.ar      1 UNK         0.0000 
     14 C14        94.8768   53.1820  268.3621 C.ar      1 UNK         0.0000 
     15 C15        92.9001   51.4735  269.4880 C.ar      1 UNK         0.0000 
     16 C16        93.1999   52.6985  270.0791 C.ar      1 UNK         0.0000 
     17 C17        94.1534   53.5481  269.5013 C.ar      1 UNK         0.0000 
     18 N18        94.3301   54.7275  270.1391 N.2       1 UNK         0.0000 
     19 S19        93.3222   54.6345  271.4618 S.3       1 UNK         0.0000 
     20 N20        92.6192   53.1453  271.2154 N.2       1 UNK         0.0000 
     21 C21        89.7145   47.3441  265.2879 C.ar      1 UNK         0.0000 
     22 C22        88.4225   46.8014  265.3965 C.ar      1 UNK         0.0000 
     23 C23        87.8867   46.0933  264.3141 C.ar      1 UNK         0.0000 
     24 C24        88.6573   45.9409  263.1630 C.ar      1 UNK         0.0000 
     25 N25        89.9107   46.4413  263.0402 N.ar      1 UNK         0.0000 
     26 C26        90.4172   47.1261  264.0958 C.ar      1 UNK         0.0000 
     27 S27        87.4804   46.8886  266.9234 S.o2      1 UNK         0.0000 
     28 C28        88.3814   45.6524  268.0226 C.3       1 UNK         0.0000 
     29 O29        86.1349   46.3742  266.6655 O.2       1 UNK         0.0000 
     30 O30        87.6601   48.2354  267.4816 O.2       1 UNK         0.0000 
     31 H31        92.2828   46.3935  266.0450 H         1 UNK         0.0000 
     32 H32        91.2085   50.2841  267.4433 H         1 UNK         0.0000 
     33 H33        97.4692   48.1447  268.0448 H         1 UNK         0.0000 
     34 H34        96.7697   45.9473  267.0232 H         1 UNK         0.0000 
     35 H35        89.5800   48.6088  266.8767 H         1 UNK         0.0000 
     36 H36        95.1051   51.6472  266.8997 H         1 UNK         0.0000 
     37 H37        95.6283   53.8309  267.9272 H         1 UNK         0.0000 
     38 H38        92.1531   50.8275  269.9218 H         1 UNK         0.0000 
     39 H39        86.9004   45.6524  264.3687 H         1 UNK         0.0000 
     40 H40        88.2720   45.3899  262.3191 H         1 UNK         0.0000 
     41 H41        91.4083   47.5277  263.9633 H         1 UNK         0.0000 
     42 H42        87.8668   45.5727  268.9784 H         1 UNK         0.0000 
     43 H43        89.4077   45.9918  268.1612 H         1 UNK         0.0000 
     44 H44        88.3602   44.6759  267.5447 H         1 UNK         0.0000 
@<TRIPOS>BOND
     1    1    2 ar   
     2    1    5 ar   
     3    1   31 1    
     4    2    3 ar   
     5    2   12 1    
     6    3    4 ar   
     7    3   32 1    
     8    4    6 ar   
     9    4   11 1    
    10    5    6 ar   
    11    5   10 ar   
    12    6    7 ar   
    13    7    8 ar   
    14    8    9 ar   
    15    8   33 1    
    16    9   10 ar   
    17    9   34 1    
    18   11   13 ar   
    19   11   15 ar   
    20   12   21 1    
    21   12   35 1    
    22   13   14 ar   
    23   13   36 1    
    24   14   17 ar   
    25   14   37 1    
    26   15   16 ar   
    27   15   38 1    
    28   16   17 ar   
    29   16   20 2    
    30   17   18 2    
    31   18   19 1    
    32   19   20 1    
    33   21   22 ar   
    34   21   26 ar   
    35   22   23 ar   
    36   22   27 1    
    37   23   24 ar   
    38   23   39 1    
    39   24   25 ar   
    40   24   40 1    
    41   25   26 ar   
    42   26   41 1    
    43   27   28 1    
    44   27   29 2    
    45   27   30 2    
    46   28   42 1    
    47   28   43 1    
    48   28   44 1    
@<TRIPOS>SUBSTRUCTURE
     1 UNK         1 GROUP             0       ****    0 ROOT    
