@<TRIPOS>MOLECULE
52
53   57    1
SMALL
USER_CHARGES


@<TRIPOS>ATOM
      1 C1         93.3114   49.8130  267.6412 C.ar      1 UNK         0.0000 
      2 C2         92.5675   47.3461  266.4704 C.ar      1 UNK         0.0000 
      3 C3         91.6140   48.3391  266.6758 C.ar      1 UNK         0.0000 
      4 C4         91.9831   49.5402  267.2762 C.ar      1 UNK         0.0000 
      5 C5         93.8959   47.5397  266.9028 C.ar      1 UNK         0.0000 
      6 C6         94.2808   48.7816  267.4948 C.ar      1 UNK         0.0000 
      7 N7         95.5663   48.9631  267.9272 N.ar      1 UNK         0.0000 
      8 C8         96.4496   47.9536  267.7395 C.ar      1 UNK         0.0000 
      9 C9         96.0619   46.7444  267.1779 C.ar      1 UNK         0.0000 
     10 N10        94.7952   46.5297  266.7538 N.ar      1 UNK         0.0000 
     11 N11        90.2754   48.1313  266.3198 N.pl3     1 UNK         0.0000 
     12 C12        89.7170   47.3507  265.2914 C.ar      1 UNK         0.0000 
     13 C13        90.4214   47.1275  264.1002 C.ar      1 UNK         0.0000 
     14 N14        89.9190   46.4350  263.0469 N.ar      1 UNK         0.0000 
     15 C15        88.6628   45.9396  263.1653 C.ar      1 UNK         0.0000 
     16 C16        87.8883   46.0973  264.3134 C.ar      1 UNK         0.0000 
     17 C17        88.4249   46.8053  265.3978 C.ar      1 UNK         0.0000 
     18 S18        87.4805   46.8913  266.9255 S.o2      1 UNK         0.0000 
     19 O19        86.1396   46.3665  266.6677 O.2       1 UNK         0.0000 
     20 O20        87.6492   48.2417  267.4792 O.2       1 UNK         0.0000 
     21 C21        88.3838   45.6765  268.0465 C.3       1 UNK         0.0000 
     22 C22        93.6501   51.1190  268.2585 C.ar      1 UNK         0.0000 
     23 C23        94.6211   51.9736  267.7509 C.ar      1 UNK         0.0000 
     24 C24        94.8963   53.2015  268.3556 C.ar      1 UNK         0.0000 
     25 C25        92.9588   51.4516  269.4041 C.ar      1 UNK         0.0000 
     26 C26        93.2230   52.6641  270.0467 C.ar      1 UNK         0.0000 
     27 C27        94.1745   53.5756  269.5049 C.ar      1 UNK         0.0000 
     28 C28        94.1617   54.7286  270.3490 C.ar      1 UNK         0.0000 
     29 C29        93.2720   54.4750  271.3665 C.ar      1 UNK         0.0000 
     30 N30        92.7072   53.2287  271.2146 N.pl3     1 UNK         0.0000 
     31 C31        91.8097   52.6164  272.2119 C.3       1 UNK         0.0000 
     32 C32        90.7891   51.6506  271.6176 C.3       1 UNK         0.0000 
     33 H33        92.2865   46.4011  266.0282 H         1 UNK         0.0000 
     34 H34        91.2205   50.2896  267.4479 H         1 UNK         0.0000 
     35 H35        97.4683   48.1407  268.0439 H         1 UNK         0.0000 
     36 H36        96.7697   45.9448  267.0181 H         1 UNK         0.0000 
     37 H37        89.5855   48.6227  266.8783 H         1 UNK         0.0000 
     38 H38        91.4226   47.5040  263.9727 H         1 UNK         0.0000 
     39 H39        88.2778   45.3844  262.3233 H         1 UNK         0.0000 
     40 H40        86.9011   45.6556  264.3639 H         1 UNK         0.0000 
     41 H41        87.8696   45.6352  269.0056 H         1 UNK         0.0000 
     42 H42        89.4113   46.0126  268.1796 H         1 UNK         0.0000 
     43 H43        88.3656   44.6930  267.5796 H         1 UNK         0.0000 
     44 H44        95.1401   51.6698  266.8558 H         1 UNK         0.0000 
     45 H45        95.6429   53.8541  267.9250 H         1 UNK         0.0000 
     46 H46        92.2336   50.7237  269.7011 H         1 UNK         0.0000 
     47 H47        94.7721   55.6146  270.2457 H         1 UNK         0.0000 
     48 H48        93.0024   55.0952  272.2130 H         1 UNK         0.0000 
     49 H49        91.2696   53.4001  272.7426 H         1 UNK         0.0000 
     50 H50        92.4113   52.0715  272.9378 H         1 UNK         0.0000 
     51 H51        90.1336   51.1695  272.3208 H         1 UNK         0.0000 
     52 H52        91.2619   50.7266  271.3302 H         1 UNK         0.0000 
     53 H53        90.2101   52.0773  270.7922 H         1 UNK         0.0000 
@<TRIPOS>BOND
     1    1    4 ar   
     2    1    6 ar   
     3    1   22 1    
     4    2    3 ar   
     5    2    5 ar   
     6    2   33 1    
     7    3    4 ar   
     8    3   11 1    
     9    4   34 1    
    10    5    6 ar   
    11    5   10 ar   
    12    6    7 ar   
    13    7    8 ar   
    14    8    9 ar   
    15    8   35 1    
    16    9   10 ar   
    17    9   36 1    
    18   11   12 1    
    19   11   37 1    
    20   12   13 ar   
    21   12   17 ar   
    22   13   14 ar   
    23   13   38 1    
    24   14   15 ar   
    25   15   16 ar   
    26   15   39 1    
    27   16   17 ar   
    28   16   40 1    
    29   17   18 1    
    30   18   19 2    
    31   18   20 2    
    32   18   21 1    
    33   21   41 1    
    34   21   42 1    
    35   21   43 1    
    36   22   23 ar   
    37   22   25 ar   
    38   23   24 ar   
    39   23   44 1    
    40   24   27 ar   
    41   24   45 1    
    42   25   26 ar   
    43   25   46 1    
    44   26   27 ar   
    45   26   30 ar   
    46   27   28 ar   
    47   28   29 ar   
    48   28   47 1    
    49   29   30 ar   
    50   29   48 1    
    51   30   31 1    
    52   31   32 1    
    53   31   49 1    
    54   31   50 1    
    55   32   51 1    
    56   32   52 1    
    57   32   53 1    
@<TRIPOS>SUBSTRUCTURE
     1 UNK         1 GROUP             0       ****    0 ROOT    
