@<TRIPOS>MOLECULE
49
45   48    1
SMALL
USER_CHARGES


@<TRIPOS>ATOM
      1 C1         93.2820   49.7787  267.6942 C.ar      1 UNK         0.0000 
      2 C2         92.5593   47.3370  266.4888 C.ar      1 UNK         0.0000 
      3 C3         91.6047   48.3296  266.6732 C.ar      1 UNK         0.0000 
      4 C4         91.9709   49.5231  267.2782 C.ar      1 UNK         0.0000 
      5 C5         93.8953   47.5304  266.9261 C.ar      1 UNK         0.0000 
      6 C6         94.2750   48.7673  267.5290 C.ar      1 UNK         0.0000 
      7 N7         95.5619   48.9626  267.9535 N.ar      1 UNK         0.0000 
      8 C8         96.4516   47.9533  267.7695 C.ar      1 UNK         0.0000 
      9 C9         96.0598   46.7392  267.2106 C.ar      1 UNK         0.0000 
     10 N10        94.7989   46.5188  266.7897 N.ar      1 UNK         0.0000 
     11 C11        93.5952   51.0844  268.3313 C.ar      1 UNK         0.0000 
     12 C12        94.5719   51.9301  267.7852 C.ar      1 UNK         0.0000 
     13 C13        94.8427   53.1540  268.3966 C.ar      1 UNK         0.0000 
     14 C14        94.1433   53.5318  269.5201 C.ar      1 UNK         0.0000 
     15 C15        93.1746   52.7091  270.0775 C.ar      1 UNK         0.0000 
     16 C16        92.9084   51.4788  269.4813 C.ar      1 UNK         0.0000 
     17 N17        90.2697   48.1106  266.3099 N.pl3     1 UNK         0.0000 
     18 C18        89.7103   47.3327  265.2784 C.ar      1 UNK         0.0000 
     19 C19        90.4172   47.1253  264.0922 C.ar      1 UNK         0.0000 
     20 N20        89.8957   46.4495  263.0389 N.ar      1 UNK         0.0000 
     21 C21        88.6529   45.9439  263.1611 C.ar      1 UNK         0.0000 
     22 C22        87.8862   46.0847  264.3178 C.ar      1 UNK         0.0000 
     23 C23        88.4170   46.8009  265.3996 C.ar      1 UNK         0.0000 
     24 S24        87.4738   46.8803  266.9122 S.o2      1 UNK         0.0000 
     25 O25        86.1325   46.4072  266.6648 O.2       1 UNK         0.0000 
     26 O26        87.6872   48.2303  267.4905 O.2       1 UNK         0.0000 
     27 C27        88.3692   45.6214  267.9982 C.3       1 UNK         0.0000 
     28 N28        94.4021   54.7489  270.1265 N.pl3     1 UNK         0.0000 
     29 H29        92.2854   46.3918  266.0511 H         1 UNK         0.0000 
     30 H30        91.2104   50.2821  267.4244 H         1 UNK         0.0000 
     31 H31        97.4787   48.1515  268.0470 H         1 UNK         0.0000 
     32 H32        96.7743   45.9391  267.0464 H         1 UNK         0.0000 
     33 H33        95.1082   51.6414  266.9089 H         1 UNK         0.0000 
     34 H34        95.6103   53.8120  267.9571 H         1 UNK         0.0000 
     35 H35        92.6490   53.0121  270.9964 H         1 UNK         0.0000 
     36 H36        92.1657   50.8433  269.9430 H         1 UNK         0.0000 
     37 H37        89.5675   48.5840  266.8654 H         1 UNK         0.0000 
     38 H38        91.4129   47.5223  263.9807 H         1 UNK         0.0000 
     39 H39        88.2686   45.3827  262.3187 H         1 UNK         0.0000 
     40 H40        86.9071   45.6337  264.3890 H         1 UNK         0.0000 
     41 H41        87.8387   45.5102  268.9412 H         1 UNK         0.0000 
     42 H42        89.3864   45.9742  268.1594 H         1 UNK         0.0000 
     43 H43        88.3749   44.6677  267.4664 H         1 UNK         0.0000 
     44 H44        93.8999   55.0302  270.9569 H         1 UNK         0.0000 
     45 H45        95.0881   55.3795  269.6841 H         1 UNK         0.0000 
@<TRIPOS>BOND
     1    1    4 ar   
     2    1    6 ar   
     3    1   11 1    
     4    2    3 ar   
     5    2    5 ar   
     6    2   29 1    
     7    3    4 ar   
     8    3   17 1    
     9    4   30 1    
    10    5    6 ar   
    11    5   10 ar   
    12    6    7 ar   
    13    7    8 ar   
    14    8    9 ar   
    15    8   31 1    
    16    9   10 ar   
    17    9   32 1    
    18   11   12 ar   
    19   11   16 ar   
    20   12   13 ar   
    21   12   33 1    
    22   13   14 ar   
    23   13   34 1    
    24   14   15 ar   
    25   14   28 1    
    26   15   16 ar   
    27   15   35 1    
    28   16   36 1    
    29   17   18 1    
    30   17   37 1    
    31   18   19 ar   
    32   18   23 ar   
    33   19   20 ar   
    34   19   38 1    
    35   20   21 ar   
    36   21   22 ar   
    37   21   39 1    
    38   22   23 ar   
    39   22   40 1    
    40   23   24 1    
    41   24   25 2    
    42   24   26 2    
    43   24   27 1    
    44   27   41 1    
    45   27   42 1    
    46   27   43 1    
    47   28   44 1    
    48   28   45 1    
@<TRIPOS>SUBSTRUCTURE
     1 UNK         1 GROUP             0       ****    0 ROOT    
