@<TRIPOS>MOLECULE
47
49   52    1
SMALL
USER_CHARGES


@<TRIPOS>ATOM
      1 C1         91.6083   48.3334  266.6744 C.ar      1 UNK         0.0000 
      2 C2         91.9770   49.5235  267.2704 C.ar      1 UNK         0.0000 
      3 C3         93.2888   49.7910  267.6682 C.ar      1 UNK         0.0000 
      4 C4         92.5616   47.3282  266.4823 C.ar      1 UNK         0.0000 
      5 C5         93.8964   47.5326  266.9181 C.ar      1 UNK         0.0000 
      6 C6         94.2747   48.7648  267.5031 C.ar      1 UNK         0.0000 
      7 N7         95.5582   48.9607  267.9334 N.ar      1 UNK         0.0000 
      8 C8         96.4450   47.9497  267.7524 C.ar      1 UNK         0.0000 
      9 C9         96.0650   46.7377  267.1987 C.ar      1 UNK         0.0000 
     10 N10        94.7919   46.5129  266.7751 N.ar      1 UNK         0.0000 
     11 N11        90.2641   48.1146  266.3110 N.pl3     1 UNK         0.0000 
     12 C12        93.6036   51.0836  268.3078 C.ar      1 UNK         0.0000 
     13 C13        94.5822   51.9426  267.7946 C.ar      1 UNK         0.0000 
     14 C14        94.8311   53.1648  268.4135 C.ar      1 UNK         0.0000 
     15 C15        92.9139   51.4502  269.4609 C.ar      1 UNK         0.0000 
     16 C16        93.1683   52.6744  270.0993 C.ar      1 UNK         0.0000 
     17 C17        94.1199   53.5419  269.5356 C.ar      1 UNK         0.0000 
     18 C18        89.7151   47.3380  265.2859 C.ar      1 UNK         0.0000 
     19 C19        90.4155   47.1252  264.0962 C.ar      1 UNK         0.0000 
     20 N20        89.9070   46.4429  263.0387 N.ar      1 UNK         0.0000 
     21 C21        88.6553   45.9399  263.1634 C.ar      1 UNK         0.0000 
     22 C22        87.8846   46.0881  264.3216 C.ar      1 UNK         0.0000 
     23 C23        88.4235   46.7973  265.3979 C.ar      1 UNK         0.0000 
     24 S24        87.4819   46.9001  266.9260 S.o2      1 UNK         0.0000 
     25 O25        86.1337   46.3858  266.6708 O.2       1 UNK         0.0000 
     26 O26        87.6636   48.2432  267.4756 O.2       1 UNK         0.0000 
     27 C27        88.3745   45.6750  268.0367 C.3       1 UNK         0.0000 
     28 C28        94.3537   54.9171  270.1798 C.3       1 UNK         0.0000 
     29 C29        93.3263   55.3509  271.2282 C.3       1 UNK         0.0000 
     30 H30        91.2153   50.2843  267.4284 H         1 UNK         0.0000 
     31 H31        92.2808   46.3800  266.0508 H         1 UNK         0.0000 
     32 H32        97.4713   48.1443  268.0472 H         1 UNK         0.0000 
     33 H33        96.7709   45.9398  267.0374 H         1 UNK         0.0000 
     34 H34        89.5797   48.5996  266.8736 H         1 UNK         0.0000 
     35 H35        95.1217   51.6636  266.9061 H         1 UNK         0.0000 
     36 H36        95.5765   53.8258  267.9781 H         1 UNK         0.0000 
     37 H37        92.1686   50.7946  269.8997 H         1 UNK         0.0000 
     38 H38        92.6234   52.9039  270.9908 H         1 UNK         0.0000 
     39 H39        91.4081   47.5271  263.9663 H         1 UNK         0.0000 
     40 H40        88.2685   45.3871  262.3178 H         1 UNK         0.0000 
     41 H41        86.9030   45.6439  264.3753 H         1 UNK         0.0000 
     42 H42        87.8677   45.6377  269.0039 H         1 UNK         0.0000 
     43 H43        89.4074   46.0025  268.1649 H         1 UNK         0.0000 
     44 H44        88.3453   44.6912  267.5702 H         1 UNK         0.0000 
     45 H45        94.5106   55.6469  269.3723 H         1 UNK         0.0000 
     46 H46        95.2617   54.9789  270.8007 H         1 UNK         0.0000 
     47 H47        93.6635   56.3169  271.6265 H         1 UNK         0.0000 
     48 H48        93.3324   54.6666  272.0834 H         1 UNK         0.0000 
     49 H49        92.3099   55.4448  270.8648 H         1 UNK         0.0000 
@<TRIPOS>BOND
     1    1    2 ar   
     2    1    4 ar   
     3    1   11 1    
     4    2    3 ar   
     5    2   30 1    
     6    3    6 ar   
     7    3   12 1    
     8    4    5 ar   
     9    4   31 1    
    10    5    6 ar   
    11    5   10 ar   
    12    6    7 ar   
    13    7    8 ar   
    14    8    9 ar   
    15    8   32 1    
    16    9   10 ar   
    17    9   33 1    
    18   11   18 1    
    19   11   34 1    
    20   12   13 ar   
    21   12   15 ar   
    22   13   14 ar   
    23   13   35 1    
    24   14   17 ar   
    25   14   36 1    
    26   15   16 ar   
    27   15   37 1    
    28   16   17 ar   
    29   16   38 1    
    30   17   28 1    
    31   18   19 ar   
    32   18   23 ar   
    33   19   20 ar   
    34   19   39 1    
    35   20   21 ar   
    36   21   22 ar   
    37   21   40 1    
    38   22   23 ar   
    39   22   41 1    
    40   23   24 1    
    41   24   25 2    
    42   24   26 2    
    43   24   27 1    
    44   27   42 1    
    45   27   43 1    
    46   27   44 1    
    47   28   29 1    
    48   28   45 1    
    49   28   46 1    
    50   29   47 1    
    51   29   48 1    
    52   29   49 1    
@<TRIPOS>SUBSTRUCTURE
     1 UNK         1 GROUP             0       ****    0 ROOT    
