@<TRIPOS>MOLECULE
19
45   49    1
SMALL
USER_CHARGES


@<TRIPOS>ATOM
      1 C1         91.5919   48.3113  266.7137 C.ar      1 UNK         0.0000 
      2 C2         91.9737   49.5382  267.2740 C.ar      1 UNK         0.0000 
      3 C3         93.2784   49.7908  267.6730 C.ar      1 UNK         0.0000 
      4 C4         94.2680   48.7772  267.5133 C.ar      1 UNK         0.0000 
      5 C5         93.8795   47.5270  266.9201 C.ar      1 UNK         0.0000 
      6 C6         92.5376   47.3212  266.5200 C.ar      1 UNK         0.0000 
      7 C7         93.5872   51.0945  268.3284 C.ar      1 UNK         0.0000 
      8 C8         92.9105   51.4581  269.4749 C.ar      1 UNK         0.0000 
      9 C9         93.2075   52.6695  270.0688 C.ar      1 UNK         0.0000 
     10 C10        94.1599   53.5455  269.4884 C.ar      1 UNK         0.0000 
     11 C11        94.8806   53.1831  268.3564 C.ar      1 UNK         0.0000 
     12 C12        94.5635   51.9339  267.7910 C.ar      1 UNK         0.0000 
     13 N13        94.7950   46.5293  266.7603 N.ar      1 UNK         0.0000 
     14 C14        96.0527   46.7456  267.1808 C.ar      1 UNK         0.0000 
     15 C15        96.4462   47.9586  267.7463 C.ar      1 UNK         0.0000 
     16 N16        95.5547   48.9614  267.9316 N.ar      1 UNK         0.0000 
     17 N17        90.2589   48.1474  266.3192 N.pl3     1 UNK         0.0000 
     18 C18        94.1772   54.7621  270.3164 C.ar      1 UNK         0.0000 
     19 C19        93.3120   54.5077  271.3434 C.ar      1 UNK         0.0000 
     20 N20        92.7370   53.2548  271.2326 N.pl3     1 UNK         0.0000 
     21 C21        91.8268   52.6667  272.1752 C.3       1 UNK         0.0000 
     22 C22        89.6772   47.3563  265.3181 C.ar      1 UNK         0.0000 
     23 C23        90.3332   47.0353  264.1264 C.ar      1 UNK         0.0000 
     24 C24        89.7129   46.1911  263.1996 C.ar      1 UNK         0.0000 
     25 C25        88.4539   45.6752  263.4709 C.ar      1 UNK         0.0000 
     26 C26        87.7916   45.9887  264.6598 C.ar      1 UNK         0.0000 
     27 C27        88.4119   46.8267  265.5812 C.ar      1 UNK         0.0000 
     28 H28        91.2132   50.2928  267.4221 H         1 UNK         0.0000 
     29 H29        92.2566   46.3915  266.0369 H         1 UNK         0.0000 
     30 H30        92.1423   50.7879  269.9234 H         1 UNK         0.0000 
     31 H31        95.6232   53.8155  267.9172 H         1 UNK         0.0000 
     32 H32        95.0955   51.6431  266.8918 H         1 UNK         0.0000 
     33 H33        96.7693   45.9460  267.0194 H         1 UNK         0.0000 
     34 H34        97.4666   48.1445  268.0428 H         1 UNK         0.0000 
     35 H35        89.5994   48.7349  266.8131 H         1 UNK         0.0000 
     36 H36        94.7896   55.6124  270.1980 H         1 UNK         0.0000 
     37 H37        93.0519   55.1114  272.1894 H         1 UNK         0.0000 
     38 H38        90.8903   52.4251  271.6725 H         1 UNK         0.0000 
     39 H39        91.6273   53.3426  273.0207 H         1 UNK         0.0000 
     40 H40        92.2598   51.7480  272.5656 H         1 UNK         0.0000 
     41 H41        91.3238   47.4127  263.9170 H         1 UNK         0.0000 
     42 H42        90.1981   45.9412  262.2667 H         1 UNK         0.0000 
     43 H43        87.9450   45.0518  262.7518 H         1 UNK         0.0000 
     44 H44        86.8041   45.5972  264.8462 H         1 UNK         0.0000 
     45 H45        87.8892   47.0596  266.4896 H         1 UNK         0.0000 
@<TRIPOS>BOND
     1    1    2 ar   
     2    1    6 ar   
     3    1   17 1    
     4    2    3 ar   
     5    2   28 1    
     6    3    4 ar   
     7    3    7 1    
     8    4    5 ar   
     9    4   16 ar   
    10    5    6 ar   
    11    5   13 ar   
    12    6   29 1    
    13    7    8 ar   
    14    7   12 ar   
    15    8    9 ar   
    16    8   30 1    
    17    9   10 ar   
    18    9   20 ar   
    19   10   11 ar   
    20   10   18 ar   
    21   11   12 ar   
    22   11   31 1    
    23   12   32 1    
    24   13   14 ar   
    25   14   15 ar   
    26   14   33 1    
    27   15   16 ar   
    28   15   34 1    
    29   17   22 1    
    30   17   35 1    
    31   18   19 ar   
    32   18   36 1    
    33   19   20 ar   
    34   19   37 1    
    35   20   21 1    
    36   21   38 1    
    37   21   39 1    
    38   21   40 1    
    39   22   23 ar   
    40   22   27 ar   
    41   23   24 ar   
    42   23   41 1    
    43   24   25 ar   
    44   24   42 1    
    45   25   26 ar   
    46   25   43 1    
    47   26   27 ar   
    48   26   44 1    
    49   27   45 1    
@<TRIPOS>SUBSTRUCTURE
     1 UNK         1 GROUP             0       ****    0 ROOT    
