@<TRIPOS>MOLECULE
60
54   58    1
SMALL
USER_CHARGES


@<TRIPOS>ATOM
      1 C1         92.6660   47.2613  266.3406 C.ar      1 UNK         0.0000 
      2 C2         91.6770   48.2220  266.5146 C.ar      1 UNK         0.0000 
      3 C3         91.9879   49.4167  267.1425 C.ar      1 UNK         0.0000 
      4 C4         93.2709   49.6946  267.6279 C.ar      1 UNK         0.0000 
      5 C5         93.9719   47.4800  266.8354 C.ar      1 UNK         0.0000 
      6 C6         94.2913   48.7152  267.4805 C.ar      1 UNK         0.0000 
      7 N7         95.5450   48.9221  267.9883 N.ar      1 UNK         0.0000 
      8 C8         96.4599   47.9343  267.8372 C.ar      1 UNK         0.0000 
      9 C9         96.1350   46.7275  267.2279 C.ar      1 UNK         0.0000 
     10 N10        94.9013   46.4918  266.7230 N.ar      1 UNK         0.0000 
     11 N11        90.3487   47.9881  266.1437 N.pl3     1 UNK         0.0000 
     12 C12        89.8102   47.2444  265.0862 C.ar      1 UNK         0.0000 
     13 C13        90.5239   47.0994  263.8922 C.ar      1 UNK         0.0000 
     14 N14        90.0430   46.4477  262.8068 N.ar      1 UNK         0.0000 
     15 C15        88.8025   45.9112  262.8993 C.ar      1 UNK         0.0000 
     16 C16        88.0213   45.9914  264.0502 C.ar      1 UNK         0.0000 
     17 C17        88.5247   46.6790  265.1618 C.ar      1 UNK         0.0000 
     18 S18        87.5572   46.7485  266.6776 S.o2      1 UNK         0.0000 
     19 O19        87.9494   45.5860  267.4786 O.2       1 UNK         0.0000 
     20 O20        87.7078   48.0995  267.2278 O.2       1 UNK         0.0000 
     21 C21        85.7583   46.5374  266.1602 C.3       1 UNK         0.0000 
     22 C22        93.4545   50.9305  268.4147 C.ar      1 UNK         0.0000 
     23 C23        94.4202   51.9117  268.1364 C.ar      1 UNK         0.0000 
     24 C24        94.4695   53.0834  268.9040 C.ar      1 UNK         0.0000 
     25 C25        92.5838   51.1138  269.4835 C.ar      1 UNK         0.0000 
     26 C26        92.6365   52.2501  270.2532 C.ar      1 UNK         0.0000 
     27 C27        93.5640   53.2265  269.9558 C.ar      1 UNK         0.0000 
     28 O28        93.4148   54.3422  270.7273 O.3       1 UNK         0.0000 
     29 C29        92.4599   54.0057  271.7365 C.3       1 UNK         0.0000 
     30 C30        91.7186   52.6858  271.3365 C.3       1 UNK         0.0000 
     31 C31        91.6600   51.7353  272.5275 C.3       1 UNK         0.0000 
     32 C32        90.2882   52.7274  270.7487 C.3       1 UNK         0.0000 
     33 H33        92.4190   46.3273  265.8706 H         1 UNK         0.0000 
     34 H34        91.1990   50.1424  267.2856 H         1 UNK         0.0000 
     35 H35        97.4509   48.1344  268.2160 H         1 UNK         0.0000 
     36 H36        96.8601   45.9347  267.1210 H         1 UNK         0.0000 
     37 H37        89.6448   48.3730  266.7646 H         1 UNK         0.0000 
     38 H38        91.5092   47.5215  263.7899 H         1 UNK         0.0000 
     39 H39        88.4352   45.3922  262.0288 H         1 UNK         0.0000 
     40 H40        87.0510   45.5181  264.0657 H         1 UNK         0.0000 
     41 H41        85.1315   46.6853  267.0371 H         1 UNK         0.0000 
     42 H42        85.6122   45.5261  265.7792 H         1 UNK         0.0000 
     43 H43        85.5191   47.2723  265.3933 H         1 UNK         0.0000 
     44 H44        95.1056   51.7814  267.3114 H         1 UNK         0.0000 
     45 H45        95.1829   53.8593  268.6701 H         1 UNK         0.0000 
     46 H46        91.8355   50.3646  269.6999 H         1 UNK         0.0000 
     47 H47        91.8441   54.8559  272.0034 H         1 UNK         0.0000 
     48 H48        93.0585   53.8331  272.6315 H         1 UNK         0.0000 
     49 H49        92.6717   51.5280  272.8282 H         1 UNK         0.0000 
     50 H50        91.1837   50.7813  272.3000 H         1 UNK         0.0000 
     51 H51        91.1571   52.1856  273.3830 H         1 UNK         0.0000 
     52 H52        90.2017   53.5269  270.0147 H         1 UNK         0.0000 
     53 H53        89.5374   52.9139  271.5165 H         1 UNK         0.0000 
     54 H54        89.9978   51.8184  270.2314 H         1 UNK         0.0000 
@<TRIPOS>BOND
     1    1    2 ar   
     2    1    5 ar   
     3    1   33 1    
     4    2    3 ar   
     5    2   11 1    
     6    3    4 ar   
     7    3   34 1    
     8    4    6 ar   
     9    4   22 1    
    10    5    6 ar   
    11    5   10 ar   
    12    6    7 ar   
    13    7    8 ar   
    14    8    9 ar   
    15    8   35 1    
    16    9   10 ar   
    17    9   36 1    
    18   11   12 1    
    19   11   37 1    
    20   12   13 ar   
    21   12   17 ar   
    22   13   14 ar   
    23   13   38 1    
    24   14   15 ar   
    25   15   16 ar   
    26   15   39 1    
    27   16   17 ar   
    28   16   40 1    
    29   17   18 1    
    30   18   19 2    
    31   18   20 2    
    32   18   21 1    
    33   21   41 1    
    34   21   42 1    
    35   21   43 1    
    36   22   23 ar   
    37   22   25 ar   
    38   23   24 ar   
    39   23   44 1    
    40   24   27 ar   
    41   24   45 1    
    42   25   26 ar   
    43   25   46 1    
    44   26   27 ar   
    45   26   30 1    
    46   27   28 1    
    47   28   29 1    
    48   29   30 1    
    49   29   47 1    
    50   29   48 1    
    51   30   31 1    
    52   30   32 1    
    53   31   49 1    
    54   31   50 1    
    55   31   51 1    
    56   32   52 1    
    57   32   53 1    
    58   32   54 1    
@<TRIPOS>SUBSTRUCTURE
     1 UNK         1 GROUP             0       ****    0 ROOT    
