@<TRIPOS>MOLECULE
44
43   46    1
SMALL
USER_CHARGES


@<TRIPOS>ATOM
      1 C1         93.2882   49.7977  267.6708 C.ar      1 UNK         0.0000 
      2 C2         92.5637   47.3335  266.4846 C.ar      1 UNK         0.0000 
      3 C3         91.6081   48.3294  266.6725 C.ar      1 UNK         0.0000 
      4 C4         91.9709   49.5300  267.2741 C.ar      1 UNK         0.0000 
      5 C5         93.8914   47.5333  266.9162 C.ar      1 UNK         0.0000 
      6 C6         94.2731   48.7764  267.5081 C.ar      1 UNK         0.0000 
      7 N7         95.5591   48.9636  267.9347 N.ar      1 UNK         0.0000 
      8 C8         96.4502   47.9543  267.7521 C.ar      1 UNK         0.0000 
      9 C9         96.0585   46.7408  267.1942 C.ar      1 UNK         0.0000 
     10 N10        94.7973   46.5201  266.7745 N.ar      1 UNK         0.0000 
     11 C11        93.5906   51.0998  268.3213 C.ar      1 UNK         0.0000 
     12 C12        94.5720   51.9589  267.8003 C.ar      1 UNK         0.0000 
     13 C13        94.8352   53.1750  268.4354 C.ar      1 UNK         0.0000 
     14 C14        94.1267   53.5136  269.5887 C.ar      1 UNK         0.0000 
     15 C15        93.1672   52.6613  270.1091 C.ar      1 UNK         0.0000 
     16 C16        92.8955   51.4622  269.4718 C.ar      1 UNK         0.0000 
     17 N17        90.2709   48.1207  266.3138 N.pl3     1 UNK         0.0000 
     18 C18        89.7141   47.3423  265.2863 C.ar      1 UNK         0.0000 
     19 C19        90.4157   47.1268  264.0944 C.ar      1 UNK         0.0000 
     20 N20        89.9080   46.4425  263.0386 N.ar      1 UNK         0.0000 
     21 C21        88.6564   45.9405  263.1630 C.ar      1 UNK         0.0000 
     22 C22        87.8865   46.0900  264.3151 C.ar      1 UNK         0.0000 
     23 C23        88.4211   46.7995  265.3973 C.ar      1 UNK         0.0000 
     24 S24        87.4806   46.8874  266.9241 S.o2      1 UNK         0.0000 
     25 O25        86.1316   46.3840  266.6643 O.2       1 UNK         0.0000 
     26 O26        87.6664   48.2322  267.4864 O.2       1 UNK         0.0000 
     27 C27        88.3761   45.6411  268.0196 C.3       1 UNK         0.0000 
     28 Br28       94.4648   55.1135  270.5550 Br        1 UNK         0.0000 
     29 H29        92.2813   46.3855  266.0517 H         1 UNK         0.0000 
     30 H30        91.2136   50.2850  267.4304 H         1 UNK         0.0000 
     31 H31        97.4700   48.1448  268.0461 H         1 UNK         0.0000 
     32 H32        96.7717   45.9421  267.0347 H         1 UNK         0.0000 
     33 H33        95.1086   51.6832  266.9117 H         1 UNK         0.0000 
     34 H34        95.5873   53.8378  268.0181 H         1 UNK         0.0000 
     35 H35        92.6500   52.9364  271.0211 H         1 UNK         0.0000 
     36 H36        92.1555   50.8050  269.8997 H         1 UNK         0.0000 
     37 H37        89.5786   48.6031  266.8763 H         1 UNK         0.0000 
     38 H38        91.4089   47.5246  263.9655 H         1 UNK         0.0000 
     39 H39        88.2700   45.3879  262.3187 H         1 UNK         0.0000 
     40 H40        86.9013   45.6455  264.3724 H         1 UNK         0.0000 
     41 H41        87.8571   45.5438  268.9719 H         1 UNK         0.0000 
     42 H42        89.4007   45.9839  268.1650 H         1 UNK         0.0000 
     43 H43        88.3665   44.6742  267.5195 H         1 UNK         0.0000 
@<TRIPOS>BOND
     1    1    4 ar   
     2    1    6 ar   
     3    1   11 1    
     4    2    3 ar   
     5    2    5 ar   
     6    2   29 1    
     7    3    4 ar   
     8    3   17 1    
     9    4   30 1    
    10    5    6 ar   
    11    5   10 ar   
    12    6    7 ar   
    13    7    8 ar   
    14    8    9 ar   
    15    8   31 1    
    16    9   10 ar   
    17    9   32 1    
    18   11   12 ar   
    19   11   16 ar   
    20   12   13 ar   
    21   12   33 1    
    22   13   14 ar   
    23   13   34 1    
    24   14   15 ar   
    25   14   28 1    
    26   15   16 ar   
    27   15   35 1    
    28   16   36 1    
    29   17   18 1    
    30   17   37 1    
    31   18   19 ar   
    32   18   23 ar   
    33   19   20 ar   
    34   19   38 1    
    35   20   21 ar   
    36   21   22 ar   
    37   21   39 1    
    38   22   23 ar   
    39   22   40 1    
    40   23   24 1    
    41   24   25 2    
    42   24   26 2    
    43   24   27 1    
    44   27   41 1    
    45   27   42 1    
    46   27   43 1    
@<TRIPOS>SUBSTRUCTURE
     1 UNK         1 GROUP             0       ****    0 ROOT    
