@<TRIPOS>MOLECULE
37
62   67    1
SMALL
USER_CHARGES


@<TRIPOS>ATOM
      1 C1         92.5682   47.3462  266.4833 C.ar      1 UNK         0.0000 
      2 C2         91.6181   48.3452  266.6664 C.ar      1 UNK         0.0000 
      3 C3         91.9789   49.5400  267.2763 C.ar      1 UNK         0.0000 
      4 C4         93.2937   49.7963  267.6790 C.ar      1 UNK         0.0000 
      5 C5         93.8967   47.5399  266.9140 C.ar      1 UNK         0.0000 
      6 C6         94.2761   48.7809  267.5103 C.ar      1 UNK         0.0000 
      7 N7         95.5636   48.9666  267.9328 N.ar      1 UNK         0.0000 
      8 C8         96.4501   47.9585  267.7397 C.ar      1 UNK         0.0000 
      9 C9         96.0608   46.7452  267.1831 C.ar      1 UNK         0.0000 
     10 N10        94.7948   46.5277  266.7655 N.ar      1 UNK         0.0000 
     11 C11        93.5976   51.0957  268.3217 C.ar      1 UNK         0.0000 
     12 N12        90.2871   48.1511  266.2958 N.pl3     1 UNK         0.0000 
     13 C13        94.5711   51.9448  267.7868 C.ar      1 UNK         0.0000 
     14 C14        94.8615   53.1780  268.3681 C.ar      1 UNK         0.0000 
     15 C15        92.8931   51.4384  269.4756 C.ar      1 UNK         0.0000 
     16 C16        93.1961   52.6578  270.0710 C.ar      1 UNK         0.0000 
     17 C17        94.1500   53.5596  269.5095 C.ar      1 UNK         0.0000 
     18 C18        94.1496   54.7271  270.3451 C.ar      1 UNK         0.0000 
     19 C19        93.2853   54.4571  271.3772 C.ar      1 UNK         0.0000 
     20 N20        92.7216   53.2230  271.2344 N.pl3     1 UNK         0.0000 
     21 C21        89.7168   47.3542  265.2854 C.ar      1 UNK         0.0000 
     22 C22        88.4155   46.8174  265.3915 C.ar      1 UNK         0.0000 
     23 C23        87.9008   46.1080  264.2919 C.ar      1 UNK         0.0000 
     24 C24        88.6799   45.9426  263.1569 C.ar      1 UNK         0.0000 
     25 N25        89.9312   46.4387  263.0407 N.ar      1 UNK         0.0000 
     26 C26        90.4252   47.1278  264.0989 C.ar      1 UNK         0.0000 
     27 C27        87.5601   46.9683  266.6297 C.2       1 UNK         0.0000 
     28 O28        87.6700   47.9323  267.3876 O.2       1 UNK         0.0000 
     29 N29        86.6670   45.9862  266.8167 N.am      1 UNK         0.0000 
     30 C30        85.5963   45.9500  267.7902 C.3       1 UNK         0.0000 
     31 C31        91.8041   52.6238  272.1856 C.3       1 UNK         0.0000 
     32 C32        85.8697   44.9843  268.9505 C.3       1 UNK         0.0000 
     33 C33        84.6496   44.8209  269.8728 C.3       1 UNK         0.0000 
     34 O34        83.4889   44.4695  269.1237 O.3       1 UNK         0.0000 
     35 C35        83.1249   45.4242  268.1288 C.3       1 UNK         0.0000 
     36 C36        84.2584   45.6197  267.1140 C.3       1 UNK         0.0000 
     37 H37        92.2770   46.3996  266.0578 H         1 UNK         0.0000 
     38 H38        91.2242   50.2942  267.4384 H         1 UNK         0.0000 
     39 H39        97.4700   48.1595  268.0271 H         1 UNK         0.0000 
     40 H40        96.7659   45.9451  267.0116 H         1 UNK         0.0000 
     41 H41        89.5946   48.5928  266.8897 H         1 UNK         0.0000 
     42 H42        95.0958   51.6551  266.8939 H         1 UNK         0.0000 
     43 H43        95.6155   53.8250  267.9345 H         1 UNK         0.0000 
     44 H44        92.1478   50.7838  269.9041 H         1 UNK         0.0000 
     45 H45        94.7390   55.6112  270.2761 H         1 UNK         0.0000 
     46 H46        93.0455   55.0371  272.2307 H         1 UNK         0.0000 
     47 H47        86.9050   45.6848  264.3020 H         1 UNK         0.0000 
     48 H48        88.2773   45.3912  262.3250 H         1 UNK         0.0000 
     49 H49        91.4139   47.5230  263.9796 H         1 UNK         0.0000 
     50 H50        86.7305   45.1658  266.2195 H         1 UNK         0.0000 
     51 H51        85.4687   46.9437  268.2348 H         1 UNK         0.0000 
     52 H52        91.6215   53.3064  273.0147 H         1 UNK         0.0000 
     53 H53        92.2473   51.7095  272.5766 H         1 UNK         0.0000 
     54 H54        90.8673   52.3927  271.6850 H         1 UNK         0.0000 
     55 H55        86.7428   45.3049  269.5229 H         1 UNK         0.0000 
     56 H56        86.1061   44.0003  268.5380 H         1 UNK         0.0000 
     57 H57        84.4589   45.7637  270.3907 H         1 UNK         0.0000 
     58 H58        84.8389   44.0692  270.6375 H         1 UNK         0.0000 
     59 H59        82.9089   46.3828  268.6064 H         1 UNK         0.0000 
     60 H60        82.2144   45.0974  267.6290 H         1 UNK         0.0000 
     61 H61        83.9940   46.3812  266.3802 H         1 UNK         0.0000 
     62 H62        84.3720   44.6839  266.5609 H         1 UNK         0.0000 
@<TRIPOS>BOND
     1    1    2 ar   
     2    1    5 ar   
     3    1   37 1    
     4    2    3 ar   
     5    2   12 1    
     6    3    4 ar   
     7    3   38 1    
     8    4    6 ar   
     9    4   11 1    
    10    5    6 ar   
    11    5   10 ar   
    12    6    7 ar   
    13    7    8 ar   
    14    8    9 ar   
    15    8   39 1    
    16    9   10 ar   
    17    9   40 1    
    18   11   13 ar   
    19   11   15 ar   
    20   12   21 1    
    21   12   41 1    
    22   13   14 ar   
    23   13   42 1    
    24   14   17 ar   
    25   14   43 1    
    26   15   16 ar   
    27   15   44 1    
    28   16   17 ar   
    29   16   20 ar   
    30   17   18 ar   
    31   18   19 ar   
    32   18   45 1    
    33   19   20 ar   
    34   19   46 1    
    35   20   31 1    
    36   21   22 ar   
    37   21   26 ar   
    38   22   23 ar   
    39   22   27 1    
    40   23   24 ar   
    41   23   47 1    
    42   24   25 ar   
    43   24   48 1    
    44   25   26 ar   
    45   26   49 1    
    46   27   28 2    
    47   27   29 am   BACKBONE|DICT|INTERRES
    48   29   30 1    
    49   29   50 1    
    50   30   32 1    
    51   30   36 1    
    52   30   51 1    
    53   31   52 1    
    54   31   53 1    
    55   31   54 1    
    56   32   33 1    
    57   32   55 1    
    58   32   56 1    
    59   33   34 1    
    60   33   57 1    
    61   33   58 1    
    62   34   35 1    
    63   35   36 1    
    64   35   59 1    
    65   35   60 1    
    66   36   61 1    
    67   36   62 1    
@<TRIPOS>SUBSTRUCTURE
     1 UNK         1 GROUP             0       ****    0 ROOT    
