@<TRIPOS>MOLECULE
53
56   60    1
SMALL
USER_CHARGES


@<TRIPOS>ATOM
      1 C1         93.3094   49.8018  267.6715 C.ar      1 UNK         0.0000 
      2 C2         92.5663   47.3465  266.4764 C.ar      1 UNK         0.0000 
      3 C3         91.6141   48.3425  266.6765 C.ar      1 UNK         0.0000 
      4 C4         91.9847   49.5423  267.2840 C.ar      1 UNK         0.0000 
      5 C5         93.8976   47.5374  266.9026 C.ar      1 UNK         0.0000 
      6 C6         94.2817   48.7776  267.4988 C.ar      1 UNK         0.0000 
      7 N7         95.5685   48.9601  267.9272 N.ar      1 UNK         0.0000 
      8 C8         96.4515   47.9520  267.7392 C.ar      1 UNK         0.0000 
      9 C9         96.0722   46.7442  267.1750 C.ar      1 UNK         0.0000 
     10 N10        94.7966   46.5286  266.7520 N.ar      1 UNK         0.0000 
     11 C11        93.6558   51.0878  268.3201 C.ar      1 UNK         0.0000 
     12 C12        94.5958   51.9639  267.7545 C.ar      1 UNK         0.0000 
     13 C13        94.8801   53.1908  268.3506 C.ar      1 UNK         0.0000 
     14 C14        93.0752   51.3916  269.5378 C.ar      1 UNK         0.0000 
     15 N15        90.2756   48.1331  266.3189 N.pl3     1 UNK         0.0000 
     16 C16        89.7176   47.3508  265.2916 C.ar      1 UNK         0.0000 
     17 C17        90.4208   47.1280  264.0996 C.ar      1 UNK         0.0000 
     18 N18        89.9177   46.4358  263.0468 N.ar      1 UNK         0.0000 
     19 C19        88.6627   45.9387  263.1665 C.ar      1 UNK         0.0000 
     20 C20        87.8896   46.0967  264.3155 C.ar      1 UNK         0.0000 
     21 C21        88.4252   46.8051  265.3987 C.ar      1 UNK         0.0000 
     22 S22        87.4830   46.8956  266.9271 S.o2      1 UNK         0.0000 
     23 O23        86.1384   46.3667  266.6674 O.2       1 UNK         0.0000 
     24 O24        87.6481   48.2411  267.4789 O.2       1 UNK         0.0000 
     25 C25        88.3835   45.6760  268.0451 C.3       1 UNK         0.0000 
     26 C26        93.2883   52.6417  270.1079 C.ar      1 UNK         0.0000 
     27 C27        94.1853   53.5555  269.5070 C.ar      1 UNK         0.0000 
     28 C28        94.1740   54.7256  270.3504 C.ar      1 UNK         0.0000 
     29 C29        93.2801   54.4760  271.3702 C.ar      1 UNK         0.0000 
     30 N30        92.7561   53.2209  271.2520 N.pl3     1 UNK         0.0000 
     31 C31        91.8097   52.5822  272.1667 C.3       1 UNK         0.0000 
     32 C32        90.3901   52.3401  271.5852 C.3       1 UNK         0.0000 
     33 C33        90.2277   52.2740  270.0518 C.3       1 UNK         0.0000 
     34 H34        92.2891   46.4042  266.0275 H         1 UNK         0.0000 
     35 H35        91.2251   50.2934  267.4554 H         1 UNK         0.0000 
     36 H36        97.4710   48.1402  268.0447 H         1 UNK         0.0000 
     37 H37        96.7729   45.9434  267.0197 H         1 UNK         0.0000 
     38 H38        95.1080   51.6781  266.8507 H         1 UNK         0.0000 
     39 H39        95.6264   53.8508  267.9180 H         1 UNK         0.0000 
     40 H40        92.4379   50.6737  270.0168 H         1 UNK         0.0000 
     41 H41        89.5894   48.6242  266.8810 H         1 UNK         0.0000 
     42 H42        91.4232   47.5028  263.9711 H         1 UNK         0.0000 
     43 H43        88.2782   45.3848  262.3238 H         1 UNK         0.0000 
     44 H44        86.9026   45.6563  264.3619 H         1 UNK         0.0000 
     45 H45        87.8704   45.6353  269.0044 H         1 UNK         0.0000 
     46 H46        89.4106   46.0123  268.1808 H         1 UNK         0.0000 
     47 H47        88.3655   44.6919  267.5793 H         1 UNK         0.0000 
     48 H48        94.7587   55.6055  270.2364 H         1 UNK         0.0000 
     49 H49        92.9922   55.1042  272.2065 H         1 UNK         0.0000 
     50 H50        91.7407   53.1842  273.0797 H         1 UNK         0.0000 
     51 H51        92.2553   51.6380  272.4817 H         1 UNK         0.0000 
     52 H52        89.7237   53.1198  271.9416 H         1 UNK         0.0000 
     53 H53        90.0417   51.4211  272.0281 H         1 UNK         0.0000 
     54 H54        89.1959   52.1688  269.7495 H         1 UNK         0.0000 
     55 H55        90.6886   51.4066  269.6298 H         1 UNK         0.0000 
     56 H56        90.6529   53.1482  269.5728 H         1 UNK         0.0000 
@<TRIPOS>BOND
     1    1    4 ar   
     2    1    6 ar   
     3    1   11 1    
     4    2    3 ar   
     5    2    5 ar   
     6    2   34 1    
     7    3    4 ar   
     8    3   15 1    
     9    4   35 1    
    10    5    6 ar   
    11    5   10 ar   
    12    6    7 ar   
    13    7    8 ar   
    14    8    9 ar   
    15    8   36 1    
    16    9   10 ar   
    17    9   37 1    
    18   11   12 ar   
    19   11   14 ar   
    20   12   13 ar   
    21   12   38 1    
    22   13   27 ar   
    23   13   39 1    
    24   14   26 ar   
    25   14   40 1    
    26   15   16 1    
    27   15   41 1    
    28   16   17 ar   
    29   16   21 ar   
    30   17   18 ar   
    31   17   42 1    
    32   18   19 ar   
    33   19   20 ar   
    34   19   43 1    
    35   20   21 ar   
    36   20   44 1    
    37   21   22 1    
    38   22   23 2    
    39   22   24 2    
    40   22   25 1    
    41   25   45 1    
    42   25   46 1    
    43   25   47 1    
    44   26   27 ar   
    45   26   30 ar   
    46   27   28 ar   
    47   28   29 ar   
    48   28   48 1    
    49   29   30 ar   
    50   29   49 1    
    51   30   31 1    
    52   31   32 1    
    53   31   50 1    
    54   31   51 1    
    55   32   33 1    
    56   32   52 1    
    57   32   53 1    
    58   33   54 1    
    59   33   55 1    
    60   33   56 1    
@<TRIPOS>SUBSTRUCTURE
     1 UNK         1 GROUP             0       ****    0 ROOT    
