@<TRIPOS>MOLECULE
29
51   55    1
SMALL
USER_CHARGES


@<TRIPOS>ATOM
      1 N1         90.2429   48.1499  266.3259 N.pl3     1 UNK         0.0000 
      2 C2         91.5915   48.3463  266.6440 C.ar      1 UNK         0.0000 
      3 C3         91.9574   49.5395  267.2559 C.ar      1 UNK         0.0000 
      4 C4         93.2671   49.7858  267.6847 C.ar      1 UNK         0.0000 
      5 C5         94.2480   48.7609  267.5164 C.ar      1 UNK         0.0000 
      6 C6         93.8706   47.5246  266.9023 C.ar      1 UNK         0.0000 
      7 C7         92.5420   47.3500  266.4404 C.ar      1 UNK         0.0000 
      8 C8         93.5621   51.0725  268.3476 C.ar      1 UNK         0.0000 
      9 C9         94.5377   51.9183  267.8084 C.ar      1 UNK         0.0000 
     10 C10        94.8189   53.1557  268.3917 C.ar      1 UNK         0.0000 
     11 C11        94.1002   53.5562  269.5191 C.ar      1 UNK         0.0000 
     12 C12        93.1598   52.6544  270.0934 C.ar      1 UNK         0.0000 
     13 C13        92.8672   51.4224  269.5078 C.ar      1 UNK         0.0000 
     14 C14        94.1039   54.7259  270.3250 C.ar      1 UNK         0.0000 
     15 C15        93.3196   54.4659  271.4136 C.ar      1 UNK         0.0000 
     16 N16        92.6997   53.2477  271.2657 N.pl3     1 UNK         0.0000 
     17 C17        91.7777   52.6682  272.2304 C.3       1 UNK         0.0000 
     18 N18        94.7782   46.5125  266.7757 N.ar      1 UNK         0.0000 
     19 C19        96.0421   46.7292  267.2110 C.ar      1 UNK         0.0000 
     20 C20        96.4257   47.9449  267.7634 C.ar      1 UNK         0.0000 
     21 N21        95.5326   48.9464  267.9520 N.ar      1 UNK         0.0000 
     22 C22        89.6492   47.3982  265.3040 C.ar      1 UNK         0.0000 
     23 C23        88.4421   46.7054  265.5047 C.ar      1 UNK         0.0000 
     24 C24        87.8175   46.0683  264.4281 C.ar      1 UNK         0.0000 
     25 C25        88.3808   46.1261  263.1569 C.ar      1 UNK         0.0000 
     26 C26        89.5836   46.7997  262.9557 C.ar      1 UNK         0.0000 
     27 C27        90.2205   47.4179  264.0292 C.ar      1 UNK         0.0000 
     28 S28        87.7197   46.6216  267.1428 S.o2      1 UNK         0.0000 
     29 C29        88.7306   45.3939  268.1466 C.3       1 UNK         0.0000 
     30 O30        87.9054   47.9440  267.7429 O.2       1 UNK         0.0000 
     31 O31        86.3737   46.0712  266.9700 O.2       1 UNK         0.0000 
     32 H32        89.5840   48.5333  266.9901 H         1 UNK         0.0000 
     33 H33        91.2097   50.3066  267.4086 H         1 UNK         0.0000 
     34 H34        92.2450   46.4152  265.9897 H         1 UNK         0.0000 
     35 H35        95.0846   51.6072  266.9221 H         1 UNK         0.0000 
     36 H36        95.5694   53.7889  267.9491 H         1 UNK         0.0000 
     37 H37        92.1532   50.7460  269.9468 H         1 UNK         0.0000 
     38 H38        94.7104   55.6146  270.1889 H         1 UNK         0.0000 
     39 H39        93.1476   55.0537  272.3082 H         1 UNK         0.0000 
     40 H40        92.2250   51.7647  272.6332 H         1 UNK         0.0000 
     41 H41        90.8371   52.4249  271.7437 H         1 UNK         0.0000 
     42 H42        91.6020   53.3826  273.0374 H         1 UNK         0.0000 
     43 H43        96.7605   45.9327  267.0668 H         1 UNK         0.0000 
     44 H44        97.4448   48.1466  268.0543 H         1 UNK         0.0000 
     45 H45        86.8897   45.5275  264.5487 H         1 UNK         0.0000 
     46 H46        87.8747   45.6506  262.3311 H         1 UNK         0.0000 
     47 H47        90.0062   46.8648  261.9658 H         1 UNK         0.0000 
     48 H48        91.1366   47.9651  263.8709 H         1 UNK         0.0000 
     49 H49        88.2859   45.3378  269.1377 H         1 UNK         0.0000 
     50 H50        89.7578   45.7535  268.2181 H         1 UNK         0.0000 
     51 H51        88.7027   44.4150  267.6714 H         1 UNK         0.0000 
@<TRIPOS>BOND
     1    1    2 1    
     2    1   22 1    
     3    1   32 1    
     4    2    3 ar   
     5    2    7 ar   
     6    3    4 ar   
     7    3   33 1    
     8    4    5 ar   
     9    4    8 1    
    10    5   21 ar   
    11    5    6 ar   
    12    6    7 ar   
    13    6   18 ar   
    14    7   34 1    
    15    8    9 ar   
    16    8   13 ar   
    17    9   10 ar   
    18    9   35 1    
    19   10   11 ar   
    20   10   36 1    
    21   11   12 ar   
    22   11   14 ar   
    23   12   13 ar   
    24   12   16 ar   
    25   13   37 1    
    26   14   15 ar   
    27   14   38 1    
    28   15   16 ar   
    29   15   39 1    
    30   16   17 1    
    31   17   40 1    
    32   17   41 1    
    33   17   42 1    
    34   18   19 ar   
    35   19   20 ar   
    36   19   43 1    
    37   20   21 ar   
    38   20   44 1    
    39   22   23 ar   
    40   22   27 ar   
    41   23   24 ar   
    42   23   28 1    
    43   24   25 ar   
    44   24   45 1    
    45   25   26 ar   
    46   25   46 1    
    47   26   27 ar   
    48   26   47 1    
    49   27   48 1    
    50   28   29 1    
    51   28   30 2    
    52   28   31 2    
    53   29   49 1    
    54   29   50 1    
    55   29   51 1    
@<TRIPOS>SUBSTRUCTURE
     1 UNK         1 GROUP             0       ****    0 ROOT    
