@<TRIPOS>MOLECULE
24
46   50    1
SMALL
USER_CHARGES


@<TRIPOS>ATOM
      1 N1         94.7934   46.5310  266.7559 N.ar      1 UNK         0.0000 
      2 N2         95.5582   48.9639  267.9334 N.ar      1 UNK         0.0000 
      3 C3         96.4466   47.9569  267.7437 C.ar      1 UNK         0.0000 
      4 C4         96.0618   46.7455  267.1837 C.ar      1 UNK         0.0000 
      5 C5         94.2697   48.7791  267.5052 C.ar      1 UNK         0.0000 
      6 C6         93.8901   47.5407  266.8989 C.ar      1 UNK         0.0000 
      7 C7         92.5600   47.3451  266.4593 C.ar      1 UNK         0.0000 
      8 C8         91.6063   48.3396  266.6555 C.ar      1 UNK         0.0000 
      9 C9         91.9699   49.5311  267.2767 C.ar      1 UNK         0.0000 
     10 C10        93.2841   49.7958  267.6804 C.ar      1 UNK         0.0000 
     11 C11        93.5907   51.0925  268.3264 C.ar      1 UNK         0.0000 
     12 N12        90.2614   48.1538  266.3036 N.pl3     1 UNK         0.0000 
     13 C13        94.5668   51.9472  267.7977 C.ar      1 UNK         0.0000 
     14 C14        94.8663   53.1821  268.3739 C.ar      1 UNK         0.0000 
     15 C15        92.8923   51.4433  269.4840 C.ar      1 UNK         0.0000 
     16 C16        93.2012   52.6678  270.0771 C.ar      1 UNK         0.0000 
     17 C17        94.1512   53.5677  269.5161 C.ar      1 UNK         0.0000 
     18 C18        94.1492   54.7274  270.3470 C.ar      1 UNK         0.0000 
     19 C19        93.2774   54.4889  271.3839 C.ar      1 UNK         0.0000 
     20 N20        92.7265   53.2453  271.2434 N.pl3     1 UNK         0.0000 
     21 C21        91.8100   52.6331  272.1856 C.3       1 UNK         0.0000 
     22 C22        89.6457   47.3771  265.3001 C.ar      1 UNK         0.0000 
     23 C23        90.3572   47.0310  264.1425 C.ar      1 UNK         0.0000 
     24 C24        89.7478   46.3118  263.1147 C.ar      1 UNK         0.0000 
     25 C25        88.4149   45.9293  263.2275 C.ar      1 UNK         0.0000 
     26 C26        87.6884   46.2695  264.3653 C.ar      1 UNK         0.0000 
     27 C27        88.2903   46.9920  265.4020 C.ar      1 UNK         0.0000 
     28 C28        87.4679   47.3024  266.5683 C.1       1 UNK         0.0000 
     29 N29        86.8158   47.5543  267.4897 N.1       1 UNK         0.0000 
     30 H30        97.4675   48.1440  268.0431 H         1 UNK         0.0000 
     31 H31        96.7682   45.9462  267.0194 H         1 UNK         0.0000 
     32 H32        92.2766   46.3948  266.0294 H         1 UNK         0.0000 
     33 H33        91.2125   50.2847  267.4445 H         1 UNK         0.0000 
     34 H34        89.6053   48.6279  266.9087 H         1 UNK         0.0000 
     35 H35        95.0978   51.6559  266.8992 H         1 UNK         0.0000 
     36 H36        95.6195   53.8279  267.9323 H         1 UNK         0.0000 
     37 H37        92.1459   50.7815  269.9121 H         1 UNK         0.0000 
     38 H38        94.7662   55.6216  270.2424 H         1 UNK         0.0000 
     39 H39        93.0084   55.0959  272.2349 H         1 UNK         0.0000 
     40 H40        91.6210   53.3091  273.0208 H         1 UNK         0.0000 
     41 H41        92.2505   51.7171  272.5757 H         1 UNK         0.0000 
     42 H42        90.8739   52.3970  271.6835 H         1 UNK         0.0000 
     43 H43        91.3873   47.3281  264.0266 H         1 UNK         0.0000 
     44 H44        90.3077   46.0365  262.2339 H         1 UNK         0.0000 
     45 H45        87.9440   45.3507  262.4475 H         1 UNK         0.0000 
     46 H46        86.6579   45.9419  264.4385 H         1 UNK         0.0000 
@<TRIPOS>BOND
     1    1    4 ar   
     2    1    6 ar   
     3    2    3 ar   
     4    2    5 ar   
     5    3    4 ar   
     6    3   30 1    
     7    4   31 1    
     8    5    6 ar   
     9    5   10 ar   
    10    6    7 ar   
    11    7    8 ar   
    12    7   32 1    
    13    8    9 ar   
    14    8   12 1    
    15    9   10 ar   
    16    9   33 1    
    17   10   11 1    
    18   11   13 ar   
    19   11   15 ar   
    20   12   22 1    
    21   12   34 1    
    22   13   14 ar   
    23   13   35 1    
    24   14   17 ar   
    25   14   36 1    
    26   15   16 ar   
    27   15   37 1    
    28   16   17 ar   
    29   16   20 ar   
    30   17   18 ar   
    31   18   19 ar   
    32   18   38 1    
    33   19   20 ar   
    34   19   39 1    
    35   20   21 1    
    36   21   40 1    
    37   21   41 1    
    38   21   42 1    
    39   22   23 ar   
    40   22   27 ar   
    41   23   24 ar   
    42   23   43 1    
    43   24   25 ar   
    44   24   44 1    
    45   25   26 ar   
    46   25   45 1    
    47   26   27 ar   
    48   26   46 1    
    49   27   28 1    
    50   28   29 3    
@<TRIPOS>SUBSTRUCTURE
     1 UNK         1 GROUP             0       ****    0 ROOT    
