@<TRIPOS>MOLECULE
68
48   52    1
SMALL
USER_CHARGES


@<TRIPOS>ATOM
      1 C1         92.5906   47.2900  266.3444 C.ar      1 UNK         0.0000 
      2 C2         91.5700   48.2152  266.5159 C.ar      1 UNK         0.0000 
      3 C3         91.8167   49.4248  267.1546 C.ar      1 UNK         0.0000 
      4 C4         93.0889   49.7623  267.6340 C.ar      1 UNK         0.0000 
      5 C5         93.8920   47.5770  266.8285 C.ar      1 UNK         0.0000 
      6 C6         94.1480   48.8244  267.4865 C.ar      1 UNK         0.0000 
      7 N7         95.3850   49.0832  268.0126 N.ar      1 UNK         0.0000 
      8 C8         96.3430   48.1354  267.8658 C.ar      1 UNK         0.0000 
      9 C9         96.0897   46.9257  267.2216 C.ar      1 UNK         0.0000 
     10 N10        94.8705   46.6478  266.6904 N.ar      1 UNK         0.0000 
     11 C11        93.2613   51.0285  268.3807 C.ar      1 UNK         0.0000 
     12 N12        90.2520   47.9338  266.1399 N.pl3     1 UNK         0.0000 
     13 C13        89.7015   47.1928  265.0832 C.ar      1 UNK         0.0000 
     14 C14        90.4532   46.9549  263.9208 C.ar      1 UNK         0.0000 
     15 N15        89.9543   46.3298  262.8373 N.ar      1 UNK         0.0000 
     16 C16        88.6785   45.8812  262.8956 C.ar      1 UNK         0.0000 
     17 C17        87.8678   46.0387  264.0101 C.ar      1 UNK         0.0000 
     18 C18        88.3733   46.7249  265.1240 C.ar      1 UNK         0.0000 
     19 S19        87.3145   46.9352  266.5561 S.o2      1 UNK         0.0000 
     20 O20        87.5376   48.2780  267.1026 O.2       1 UNK         0.0000 
     21 O21        85.9614   46.5209  266.1752 O.2       1 UNK         0.0000 
     22 C22        88.0033   45.6830  267.7810 C.3       1 UNK         0.0000 
     23 C23        94.2676   51.9515  268.0760 C.ar      1 UNK         0.0000 
     24 C24        94.4607   53.0907  268.8507 C.ar      1 UNK         0.0000 
     25 C25        92.4286   51.2390  269.4665 C.ar      1 UNK         0.0000 
     26 C26        92.6104   52.3297  270.2980 C.ar      1 UNK         0.0000 
     27 C27        93.6343   53.2671  269.9747 C.ar      1 UNK         0.0000 
     28 S28        93.6567   54.5790  271.1456 S.3       1 UNK         0.0000 
     29 C29        92.4470   53.7602  272.0760 C.2       1 UNK         0.0000 
     30 C30        91.9259   52.6515  271.4883 C.2       1 UNK         0.0000 
     31 N31        92.0631   54.2673  273.2652 N.pl3     1 UNK         0.0000 
     32 H32        92.3935   46.3273  265.8991 H         1 UNK         0.0000 
     33 H33        90.9990   50.1186  267.2856 H         1 UNK         0.0000 
     34 H34        97.3205   48.3625  268.2827 H         1 UNK         0.0000 
     35 H35        96.8504   46.1676  267.1458 H         1 UNK         0.0000 
     36 H36        89.5363   48.3371  266.7430 H         1 UNK         0.0000 
     37 H37        91.4671   47.3133  263.8480 H         1 UNK         0.0000 
     38 H38        88.3025   45.3523  262.0332 H         1 UNK         0.0000 
     39 H39        86.8652   45.6243  264.0193 H         1 UNK         0.0000 
     40 H40        87.4147   45.7414  268.6992 H         1 UNK         0.0000 
     41 H41        89.0405   45.9170  267.9869 H         1 UNK         0.0000 
     42 H42        87.9100   44.6873  267.3524 H         1 UNK         0.0000 
     43 H43        94.9129   51.7823  267.2254 H         1 UNK         0.0000 
     44 H44        95.2369   53.8087  268.6088 H         1 UNK         0.0000 
     45 H45        91.6707   50.5120  269.7113 H         1 UNK         0.0000 
     46 H46        91.1413   52.0603  271.9230 H         1 UNK         0.0000 
     47 H47        92.2887   55.2418  273.4713 H         1 UNK         0.0000 
     48 H48        91.1958   53.9428  273.7133 H         1 UNK         0.0000 
@<TRIPOS>BOND
     1    1    2 ar   
     2    1    5 ar   
     3    1   32 1    
     4    2    3 ar   
     5    2   12 1    
     6    3    4 ar   
     7    3   33 1    
     8    4    6 ar   
     9    4   11 1    
    10    5    6 ar   
    11    5   10 ar   
    12    6    7 ar   
    13    7    8 ar   
    14    8    9 ar   
    15    8   34 1    
    16    9   10 ar   
    17    9   35 1    
    18   11   23 ar   
    19   11   25 ar   
    20   12   13 1    
    21   12   36 1    
    22   13   14 ar   
    23   13   18 ar   
    24   14   15 ar   
    25   14   37 1    
    26   15   16 ar   
    27   16   17 ar   
    28   16   38 1    
    29   17   18 ar   
    30   17   39 1    
    31   18   19 1    
    32   19   20 2    
    33   19   21 2    
    34   19   22 1    
    35   22   40 1    
    36   22   41 1    
    37   22   42 1    
    38   23   24 ar   
    39   23   43 1    
    40   24   27 ar   
    41   24   44 1    
    42   25   26 ar   
    43   25   45 1    
    44   26   27 ar   
    45   26   30 1    
    46   27   28 1    
    47   28   29 1    
    48   29   30 2    
    49   29   31 1    
    50   30   46 1    
    51   31   47 1    
    52   31   48 1    
@<TRIPOS>SUBSTRUCTURE
     1 UNK         1 GROUP             0       ****    0 ROOT    
