@<TRIPOS>MOLECULE
55
50   54    1
SMALL
USER_CHARGES


@<TRIPOS>ATOM
      1 C1         91.6118   48.3366  266.6739 C.ar      1 UNK         0.0000 
      2 C2         91.9698   49.5336  267.2864 C.ar      1 UNK         0.0000 
      3 C3         93.2850   49.8006  267.6832 C.ar      1 UNK         0.0000 
      4 C4         92.5678   47.3462  266.4685 C.ar      1 UNK         0.0000 
      5 C5         93.8944   47.5432  266.9034 C.ar      1 UNK         0.0000 
      6 C6         94.2719   48.7828  267.5077 C.ar      1 UNK         0.0000 
      7 N7         95.5609   48.9661  267.9314 N.ar      1 UNK         0.0000 
      8 C8         96.4476   47.9576  267.7393 C.ar      1 UNK         0.0000 
      9 C9         96.0612   46.7472  267.1782 C.ar      1 UNK         0.0000 
     10 N10        94.7955   46.5340  266.7522 N.ar      1 UNK         0.0000 
     11 N11        90.2745   48.1296  266.3175 N.pl3     1 UNK         0.0000 
     12 C12        93.5938   51.0998  268.3264 C.ar      1 UNK         0.0000 
     13 C13        94.5697   51.9459  267.7912 C.ar      1 UNK         0.0000 
     14 C14        94.8659   53.1774  268.3682 C.ar      1 UNK         0.0000 
     15 C15        92.8971   51.4508  269.4842 C.ar      1 UNK         0.0000 
     16 C16        93.2083   52.6701  270.0801 C.ar      1 UNK         0.0000 
     17 C17        94.1610   53.5698  269.5192 C.ar      1 UNK         0.0000 
     18 C18        94.1614   54.7332  270.3565 C.ar      1 UNK         0.0000 
     19 C19        93.2770   54.4957  271.3795 C.ar      1 UNK         0.0000 
     20 N20        92.7328   53.2443  271.2449 N.pl3     1 UNK         0.0000 
     21 C21        91.8103   52.6326  272.1899 C.3       1 UNK         0.0000 
     22 C22        89.7167   47.3494  265.2904 C.ar      1 UNK         0.0000 
     23 C23        90.4217   47.1254  264.0999 C.ar      1 UNK         0.0000 
     24 N24        89.9191   46.4337  263.0465 N.ar      1 UNK         0.0000 
     25 C25        88.6626   45.9393  263.1648 C.ar      1 UNK         0.0000 
     26 C26        87.8878   46.0972  264.3127 C.ar      1 UNK         0.0000 
     27 C27        88.4240   46.8050  265.3972 C.ar      1 UNK         0.0000 
     28 S28        87.4806   46.8913  266.9254 S.o2      1 UNK         0.0000 
     29 O29        86.1391   46.3662  266.6675 O.2       1 UNK         0.0000 
     30 O30        87.6492   48.2412  267.4790 O.2       1 UNK         0.0000 
     31 C31        88.3838   45.6765  268.0468 C.3       1 UNK         0.0000 
     32 F32        95.8038   53.9727  267.8010 F         1 UNK         0.0000 
     33 H33        91.2097   50.2861  267.4498 H         1 UNK         0.0000 
     34 H34        92.2873   46.4001  266.0276 H         1 UNK         0.0000 
     35 H35        97.4668   48.1419  268.0435 H         1 UNK         0.0000 
     36 H36        96.7689   45.9467  267.0182 H         1 UNK         0.0000 
     37 H37        89.5852   48.6214  266.8768 H         1 UNK         0.0000 
     38 H38        95.1005   51.6570  266.8939 H         1 UNK         0.0000 
     39 H39        92.1487   50.7992  269.9119 H         1 UNK         0.0000 
     40 H40        94.7728   55.6120  270.2423 H         1 UNK         0.0000 
     41 H41        92.9987   55.1122  272.2199 H         1 UNK         0.0000 
     42 H42        90.8758   52.3918  271.6861 H         1 UNK         0.0000 
     43 H43        91.6098   53.2996  273.0302 H         1 UNK         0.0000 
     44 H44        92.2492   51.7136  272.5787 H         1 UNK         0.0000 
     45 H45        91.4224   47.5032  263.9725 H         1 UNK         0.0000 
     46 H46        88.2774   45.3841  262.3232 H         1 UNK         0.0000 
     47 H47        86.9004   45.6554  264.3643 H         1 UNK         0.0000 
     48 H48        87.8695   45.6352  269.0056 H         1 UNK         0.0000 
     49 H49        89.4113   46.0126  268.1793 H         1 UNK         0.0000 
     50 H50        88.3656   44.6930  267.5796 H         1 UNK         0.0000 
@<TRIPOS>BOND
     1    1    2 ar   
     2    1    4 ar   
     3    1   11 1    
     4    2    3 ar   
     5    2   33 1    
     6    3    6 ar   
     7    3   12 1    
     8    4    5 ar   
     9    4   34 1    
    10    5    6 ar   
    11    5   10 ar   
    12    6    7 ar   
    13    7    8 ar   
    14    8    9 ar   
    15    8   35 1    
    16    9   10 ar   
    17    9   36 1    
    18   11   22 1    
    19   11   37 1    
    20   12   13 ar   
    21   12   15 ar   
    22   13   14 ar   
    23   13   38 1    
    24   14   17 ar   
    25   14   32 1    
    26   15   16 ar   
    27   15   39 1    
    28   16   17 ar   
    29   16   20 ar   
    30   17   18 ar   
    31   18   19 ar   
    32   18   40 1    
    33   19   20 ar   
    34   19   41 1    
    35   20   21 1    
    36   21   42 1    
    37   21   43 1    
    38   21   44 1    
    39   22   23 ar   
    40   22   27 ar   
    41   23   24 ar   
    42   23   45 1    
    43   24   25 ar   
    44   25   26 ar   
    45   25   46 1    
    46   26   27 ar   
    47   26   47 1    
    48   27   28 1    
    49   28   29 2    
    50   28   30 2    
    51   28   31 1    
    52   31   48 1    
    53   31   49 1    
    54   31   50 1    
@<TRIPOS>SUBSTRUCTURE
     1 UNK         1 GROUP             0       ****    0 ROOT    
