@<TRIPOS>MOLECULE
48
47   50    1
SMALL
USER_CHARGES


@<TRIPOS>ATOM
      1 C1         93.2891   49.7935  267.6637 C.ar      1 UNK         0.0000 
      2 C2         92.5608   47.3405  266.4814 C.ar      1 UNK         0.0000 
      3 C3         91.6077   48.3332  266.6707 C.ar      1 UNK         0.0000 
      4 C4         91.9710   49.5295  267.2722 C.ar      1 UNK         0.0000 
      5 C5         93.8940   47.5337  266.9045 C.ar      1 UNK         0.0000 
      6 C6         94.2774   48.7739  267.4976 C.ar      1 UNK         0.0000 
      7 N7         95.5626   48.9634  267.9320 N.ar      1 UNK         0.0000 
      8 C8         96.4502   47.9550  267.7462 C.ar      1 UNK         0.0000 
      9 C9         96.0648   46.7470  267.1768 C.ar      1 UNK         0.0000 
     10 N10        94.7990   46.5280  266.7549 N.ar      1 UNK         0.0000 
     11 C11        93.5991   51.0971  268.3145 C.ar      1 UNK         0.0000 
     12 C12        94.5753   51.9457  267.7785 C.ar      1 UNK         0.0000 
     13 C13        94.8348   53.1676  268.4112 C.ar      1 UNK         0.0000 
     14 C14        94.1285   53.5217  269.5605 C.ar      1 UNK         0.0000 
     15 C15        93.1788   52.6604  270.1058 C.ar      1 UNK         0.0000 
     16 C16        92.9139   51.4668  269.4673 C.ar      1 UNK         0.0000 
     17 N17        90.2715   48.1257  266.3145 N.pl3     1 UNK         0.0000 
     18 C18        89.7152   47.3459  265.2879 C.ar      1 UNK         0.0000 
     19 C19        90.4202   47.1272  264.0964 C.ar      1 UNK         0.0000 
     20 N20        89.9129   46.4356  263.0461 N.ar      1 UNK         0.0000 
     21 C21        88.6622   45.9374  263.1674 C.ar      1 UNK         0.0000 
     22 C22        87.8909   46.0945  264.3162 C.ar      1 UNK         0.0000 
     23 C23        88.4225   46.8019  265.4011 C.ar      1 UNK         0.0000 
     24 S24        87.4807   46.8954  266.9247 S.o2      1 UNK         0.0000 
     25 O25        86.1397   46.3717  266.6686 O.2       1 UNK         0.0000 
     26 O26        87.6511   48.2450  267.4794 O.2       1 UNK         0.0000 
     27 C27        88.3821   45.6757  268.0448 C.3       1 UNK         0.0000 
     28 O28        94.3897   54.7426  270.1571 O.3       1 UNK         0.0000 
     29 C29        93.7287   55.0566  271.4029 C.3       1 UNK         0.0000 
     30 H30        92.2928   46.4025  266.0289 H         1 UNK         0.0000 
     31 H31        91.2152   50.2846  267.4485 H         1 UNK         0.0000 
     32 H32        97.4706   48.1430  268.0444 H         1 UNK         0.0000 
     33 H33        96.7729   45.9446  267.0248 H         1 UNK         0.0000 
     34 H34        95.1201   51.6805  266.8911 H         1 UNK         0.0000 
     35 H35        95.5945   53.8384  267.9783 H         1 UNK         0.0000 
     36 H36        92.6588   52.9130  271.0228 H         1 UNK         0.0000 
     37 H37        92.1743   50.8105  269.8846 H         1 UNK         0.0000 
     38 H38        89.5886   48.6199  266.8796 H         1 UNK         0.0000 
     39 H39        91.4216   47.5070  263.9713 H         1 UNK         0.0000 
     40 H40        88.2783   45.3853  262.3241 H         1 UNK         0.0000 
     41 H41        86.9043   45.6552  264.3634 H         1 UNK         0.0000 
     42 H42        87.8696   45.6335  269.0001 H         1 UNK         0.0000 
     43 H43        89.4070   46.0124  268.1807 H         1 UNK         0.0000 
     44 H44        88.3643   44.6916  267.5753 H         1 UNK         0.0000 
     45 H45        94.0299   56.0094  271.7452 H         1 UNK         0.0000 
     46 H46        94.0028   54.3161  272.1675 H         1 UNK         0.0000 
     47 H47        92.6363   55.0361  271.2683 H         1 UNK         0.0000 
@<TRIPOS>BOND
     1    1    4 ar   
     2    1    6 ar   
     3    1   11 1    
     4    2    3 ar   
     5    2    5 ar   
     6    2   30 1    
     7    3    4 ar   
     8    3   17 1    
     9    4   31 1    
    10    5    6 ar   
    11    5   10 ar   
    12    6    7 ar   
    13    7    8 ar   
    14    8    9 ar   
    15    8   32 1    
    16    9   10 ar   
    17    9   33 1    
    18   11   12 ar   
    19   11   16 ar   
    20   12   13 ar   
    21   12   34 1    
    22   13   14 ar   
    23   13   35 1    
    24   14   15 ar   
    25   14   28 1    
    26   15   16 ar   
    27   15   36 1    
    28   16   37 1    
    29   17   18 1    
    30   17   38 1    
    31   18   19 ar   
    32   18   23 ar   
    33   19   20 ar   
    34   19   39 1    
    35   20   21 ar   
    36   21   22 ar   
    37   21   40 1    
    38   22   23 ar   
    39   22   41 1    
    40   23   24 1    
    41   24   25 2    
    42   24   26 2    
    43   24   27 1    
    44   27   42 1    
    45   27   43 1    
    46   27   44 1    
    47   28   29 1    
    48   29   45 1    
    49   29   46 1    
    50   29   47 1    
@<TRIPOS>SUBSTRUCTURE
     1 UNK         1 GROUP             0       ****    0 ROOT    
