@<TRIPOS>MOLECULE
69
49   53    1
SMALL
USER_CHARGES


@<TRIPOS>ATOM
      1 C1         92.5766   47.3309  266.4823 C.ar      1 UNK         0.0000 
      2 C2         91.6148   48.3287  266.6699 C.ar      1 UNK         0.0000 
      3 C3         91.9741   49.5270  267.2715 C.ar      1 UNK         0.0000 
      4 C4         93.2916   49.7960  267.6866 C.ar      1 UNK         0.0000 
      5 C5         93.9014   47.5331  266.9271 C.ar      1 UNK         0.0000 
      6 C6         94.2765   48.7751  267.5225 C.ar      1 UNK         0.0000 
      7 N7         95.5666   48.9639  267.9549 N.ar      1 UNK         0.0000 
      8 C8         96.4588   47.9530  267.7690 C.ar      1 UNK         0.0000 
      9 C9         96.0739   46.7411  267.2208 C.ar      1 UNK         0.0000 
     10 N10        94.8067   46.5203  266.7924 N.ar      1 UNK         0.0000 
     11 C11        93.6005   51.1028  268.3248 C.ar      1 UNK         0.0000 
     12 N12        90.2860   48.1138  266.3106 N.pl3     1 UNK         0.0000 
     13 C13        94.5623   51.9414  267.7983 C.ar      1 UNK         0.0000 
     14 C14        94.8762   53.1779  268.3684 C.ar      1 UNK         0.0000 
     15 C15        92.9054   51.4651  269.4885 C.ar      1 UNK         0.0000 
     16 C16        93.1902   52.6828  270.1257 C.ar      1 UNK         0.0000 
     17 C17        94.1684   53.5476  269.5283 C.ar      1 UNK         0.0000 
     18 S18        94.3714   55.0131  270.4720 S.3       1 UNK         0.0000 
     19 C19        93.2135   54.4474  271.6124 C.2       1 UNK         0.0000 
     20 C20        92.6673   53.2239  271.3361 C.2       1 UNK         0.0000 
     21 C21        91.6712   52.4815  272.2020 C.3       1 UNK         0.0000 
     22 C22        89.7166   47.3368  265.2886 C.ar      1 UNK         0.0000 
     23 C23        88.4227   46.7955  265.3959 C.ar      1 UNK         0.0000 
     24 C24        87.8901   46.0818  264.3157 C.ar      1 UNK         0.0000 
     25 C25        88.6567   45.9315  263.1642 C.ar      1 UNK         0.0000 
     26 N26        89.9099   46.4368  263.0398 N.ar      1 UNK         0.0000 
     27 C27        90.4190   47.1179  264.0901 C.ar      1 UNK         0.0000 
     28 S28        87.4814   46.9006  266.9167 S.o2      1 UNK         0.0000 
     29 C29        88.3689   45.6582  268.0136 C.3       1 UNK         0.0000 
     30 O30        86.1255   46.4116  266.6625 O.2       1 UNK         0.0000 
     31 O31        87.6845   48.2469  267.4796 O.2       1 UNK         0.0000 
     32 H32        92.2862   46.3816  266.0648 H         1 UNK         0.0000 
     33 H33        91.2203   50.2856  267.4256 H         1 UNK         0.0000 
     34 H34        97.4800   48.1539  268.0556 H         1 UNK         0.0000 
     35 H35        96.7815   45.9404  267.0540 H         1 UNK         0.0000 
     36 H36        89.5700   48.5859  266.8683 H         1 UNK         0.0000 
     37 H37        95.1014   51.6480  266.9015 H         1 UNK         0.0000 
     38 H38        95.6230   53.8125  267.9390 H         1 UNK         0.0000 
     39 H39        92.1852   50.8006  269.9165 H         1 UNK         0.0000 
     40 H40        93.0079   55.0675  272.4571 H         1 UNK         0.0000 
     41 H41        90.7466   52.2293  271.6900 H         1 UNK         0.0000 
     42 H42        91.4133   53.0763  273.0778 H         1 UNK         0.0000 
     43 H43        92.1070   51.5533  272.5792 H         1 UNK         0.0000 
     44 H44        86.9017   45.6336  264.3868 H         1 UNK         0.0000 
     45 H45        88.2688   45.3809  262.3227 H         1 UNK         0.0000 
     46 H46        91.4028   47.5361  263.9698 H         1 UNK         0.0000 
     47 H47        87.8476   45.5993  268.9654 H         1 UNK         0.0000 
     48 H48        89.3932   45.9992  268.1524 H         1 UNK         0.0000 
     49 H49        88.3540   44.6911  267.5145 H         1 UNK         0.0000 
@<TRIPOS>BOND
     1    1    2 ar   
     2    1    5 ar   
     3    1   32 1    
     4    2    3 ar   
     5    2   12 1    
     6    3    4 ar   
     7    3   33 1    
     8    4    6 ar   
     9    4   11 1    
    10    5    6 ar   
    11    5   10 ar   
    12    6    7 ar   
    13    7    8 ar   
    14    8    9 ar   
    15    8   34 1    
    16    9   10 ar   
    17    9   35 1    
    18   11   13 ar   
    19   11   15 ar   
    20   12   22 1    
    21   12   36 1    
    22   13   14 ar   
    23   13   37 1    
    24   14   17 ar   
    25   14   38 1    
    26   15   16 ar   
    27   15   39 1    
    28   16   17 ar   
    29   16   20 1    
    30   17   18 1    
    31   18   19 1    
    32   19   20 2    
    33   19   40 1    
    34   20   21 1    
    35   21   41 1    
    36   21   42 1    
    37   21   43 1    
    38   22   23 ar   
    39   22   27 ar   
    40   23   24 ar   
    41   23   28 1    
    42   24   25 ar   
    43   24   44 1    
    44   25   26 ar   
    45   25   45 1    
    46   26   27 ar   
    47   27   46 1    
    48   28   29 1    
    49   28   30 2    
    50   28   31 2    
    51   29   47 1    
    52   29   48 1    
    53   29   49 1    
@<TRIPOS>SUBSTRUCTURE
     1 UNK         1 GROUP             0       ****    0 ROOT    
