@<TRIPOS>MOLECULE
67
47   51    1
SMALL
USER_CHARGES


@<TRIPOS>ATOM
      1 C1         93.1004   49.7216  267.7155 C.ar      1 UNK         0.0000 
      2 C2         92.5890   47.2745  266.3896 C.ar      1 UNK         0.0000 
      3 C3         91.5683   48.2049  266.5759 C.ar      1 UNK         0.0000 
      4 C4         91.8300   49.4026  267.2297 C.ar      1 UNK         0.0000 
      5 C5         93.8878   47.5400  266.8820 C.ar      1 UNK         0.0000 
      6 C6         94.1599   48.7802  267.5411 C.ar      1 UNK         0.0000 
      7 N7         95.4145   49.0346  268.0280 N.ar      1 UNK         0.0000 
      8 C8         96.3713   48.0905  267.8536 C.ar      1 UNK         0.0000 
      9 C9         96.0910   46.8809  267.2282 C.ar      1 UNK         0.0000 
     10 N10        94.8599   46.5971  266.7393 N.ar      1 UNK         0.0000 
     11 C11        93.2846   50.9778  268.4857 C.ar      1 UNK         0.0000 
     12 C12        94.2454   51.9199  268.1045 C.ar      1 UNK         0.0000 
     13 C13        94.4590   53.0941  268.8278 C.ar      1 UNK         0.0000 
     14 C14        92.5073   51.1876  269.6303 C.ar      1 UNK         0.0000 
     15 N15        90.2493   47.9429  266.1975 N.pl3     1 UNK         0.0000 
     16 C16        89.6938   47.1846  265.1577 C.ar      1 UNK         0.0000 
     17 C17        90.3836   46.9926  263.9558 C.ar      1 UNK         0.0000 
     18 N18        89.8604   46.3316  262.8928 N.ar      1 UNK         0.0000 
     19 C19        88.6069   45.8318  263.0224 C.ar      1 UNK         0.0000 
     20 C20        87.8451   45.9660  264.1837 C.ar      1 UNK         0.0000 
     21 C21        88.3928   46.6627  265.2677 C.ar      1 UNK         0.0000 
     22 S22        87.4640   46.8258  266.7979 S.o2      1 UNK         0.0000 
     23 O23        87.6173   48.2190  267.2276 O.2       1 UNK         0.0000 
     24 O24        86.1278   46.2817  266.5368 O.2       1 UNK         0.0000 
     25 C25        88.2895   45.7139  268.0726 C.3       1 UNK         0.0000 
     26 C26        92.7122   52.3451  270.3867 C.ar      1 UNK         0.0000 
     27 C27        93.6742   53.3006  269.9675 C.ar      1 UNK         0.0000 
     28 S28        93.6619   54.6467  271.0869 S.3       1 UNK         0.0000 
     29 C29        92.4847   53.7751  272.0143 C.2       1 UNK         0.0000 
     30 N30        92.0618   52.6441  271.5401 N.2       1 UNK         0.0000 
     31 N31        92.0618   54.3270  273.1729 N.pl3     1 UNK         0.0000 
     32 H32        92.3771   46.3274  265.9191 H         1 UNK         0.0000 
     33 H33        91.0166   50.1019  267.3766 H         1 UNK         0.0000 
     34 H34        97.3578   48.3186  268.2289 H         1 UNK         0.0000 
     35 H35        96.8555   46.1283  267.0976 H         1 UNK         0.0000 
     36 H36        94.8420   51.7360  267.2204 H         1 UNK         0.0000 
     37 H37        95.2043   53.8135  268.5140 H         1 UNK         0.0000 
     38 H38        91.7753   50.4604  269.9472 H         1 UNK         0.0000 
     39 H39        89.5427   48.3411  266.8073 H         1 UNK         0.0000 
     40 H40        91.3786   47.3860  263.8271 H         1 UNK         0.0000 
     41 H41        88.2110   45.2945  262.1738 H         1 UNK         0.0000 
     42 H42        86.8592   45.5273  264.2271 H         1 UNK         0.0000 
     43 H43        87.7064   45.7620  268.9919 H         1 UNK         0.0000 
     44 H44        89.2978   46.0801  268.2656 H         1 UNK         0.0000 
     45 H45        88.3046   44.6950  267.6961 H         1 UNK         0.0000 
     46 H46        92.2225   55.3228  273.3257 H         1 UNK         0.0000 
     47 H47        91.2849   53.9294  273.6848 H         1 UNK         0.0000 
@<TRIPOS>BOND
     1    1    4 ar   
     2    1    6 ar   
     3    1   11 1    
     4    2    3 ar   
     5    2    5 ar   
     6    2   32 1    
     7    3    4 ar   
     8    3   15 1    
     9    4   33 1    
    10    5    6 ar   
    11    5   10 ar   
    12    6    7 ar   
    13    7    8 ar   
    14    8    9 ar   
    15    8   34 1    
    16    9   10 ar   
    17    9   35 1    
    18   11   12 ar   
    19   11   14 ar   
    20   12   13 ar   
    21   12   36 1    
    22   13   27 ar   
    23   13   37 1    
    24   14   26 ar   
    25   14   38 1    
    26   15   16 1    
    27   15   39 1    
    28   16   17 ar   
    29   16   21 ar   
    30   17   18 ar   
    31   17   40 1    
    32   18   19 ar   
    33   19   20 ar   
    34   19   41 1    
    35   20   21 ar   
    36   20   42 1    
    37   21   22 1    
    38   22   23 2    
    39   22   24 2    
    40   22   25 1    
    41   25   43 1    
    42   25   44 1    
    43   25   45 1    
    44   26   27 ar   
    45   26   30 1    
    46   27   28 1    
    47   28   29 1    
    48   29   30 2    
    49   29   31 1    
    50   31   46 1    
    51   31   47 1    
@<TRIPOS>SUBSTRUCTURE
     1 UNK         1 GROUP             0       ****    0 ROOT    
