@<TRIPOS>MOLECULE
20
47   50    1
SMALL
USER_CHARGES


@<TRIPOS>ATOM
      1 C1         92.5739   47.3336  266.4565 C.ar      1 UNK         0.0000 
      2 C2         91.6324   48.3172  266.6741 C.ar      1 UNK         0.0000 
      3 C3         91.9632   49.5168  267.2998 C.ar      1 UNK         0.0000 
      4 C4         93.2765   49.7975  267.6776 C.ar      1 UNK         0.0000 
      5 C5         93.8958   47.5362  266.9051 C.ar      1 UNK         0.0000 
      6 C6         94.2730   48.7873  267.5121 C.ar      1 UNK         0.0000 
      7 N7         95.5665   48.9603  267.9405 N.ar      1 UNK         0.0000 
      8 C8         96.4572   47.9542  267.7463 C.ar      1 UNK         0.0000 
      9 C9         96.0617   46.7355  267.2061 C.ar      1 UNK         0.0000 
     10 N10        94.8014   46.5336  266.7720 N.ar      1 UNK         0.0000 
     11 N11        90.2859   48.1283  266.3232 N.pl3     1 UNK         0.0000 
     12 C12        89.7235   47.3483  265.2931 C.ar      1 UNK         0.0000 
     13 C13        90.4123   47.1279  264.0929 C.ar      1 UNK         0.0000 
     14 N14        89.9113   46.4423  263.0351 N.ar      1 UNK         0.0000 
     15 C15        88.6625   45.9485  263.1520 C.ar      1 UNK         0.0000 
     16 C16        87.8836   46.0962  264.3010 C.ar      1 UNK         0.0000 
     17 C17        88.4186   46.7903  265.3979 C.ar      1 UNK         0.0000 
     18 S18        87.4853   46.8968  266.9278 S.o2      1 UNK         0.0000 
     19 O19        86.1266   46.3735  266.6676 O.2       1 UNK         0.0000 
     20 O20        87.6689   48.2339  267.4731 O.2       1 UNK         0.0000 
     21 C21        88.3809   45.6744  268.0584 C.3       1 UNK         0.0000 
     22 C22        93.5881   51.1129  268.3403 C.ar      1 UNK         0.0000 
     23 C23        92.8836   51.4776  269.4978 C.ar      1 UNK         0.0000 
     24 C24        93.2031   52.6955  270.1335 C.ar      1 UNK         0.0000 
     25 C25        94.1885   53.5265  269.6279 C.ar      1 UNK         0.0000 
     26 C26        94.8277   53.1962  268.4343 C.ar      1 UNK         0.0000 
     27 C27        94.5514   51.9702  267.8248 C.ar      1 UNK         0.0000 
     28 O28        95.7310   53.9715  267.7910 O.3       1 UNK         0.0000 
     29 C29        96.0567   55.2652  268.3379 C.3       1 UNK         0.0000 
     30 H30        92.2595   46.3832  266.0442 H         1 UNK         0.0000 
     31 H31        91.2173   50.2889  267.4385 H         1 UNK         0.0000 
     32 H32        97.4708   48.1510  268.0435 H         1 UNK         0.0000 
     33 H33        96.7711   45.9434  267.0164 H         1 UNK         0.0000 
     34 H34        89.5459   48.5927  266.8588 H         1 UNK         0.0000 
     35 H35        91.4056   47.5266  263.9863 H         1 UNK         0.0000 
     36 H36        88.2721   45.3859  262.3253 H         1 UNK         0.0000 
     37 H37        86.8893   45.6433  264.3947 H         1 UNK         0.0000 
     38 H38        87.8667   45.6399  269.0059 H         1 UNK         0.0000 
     39 H39        89.4103   46.0058  268.1533 H         1 UNK         0.0000 
     40 H40        88.3460   44.7025  267.5724 H         1 UNK         0.0000 
     41 H41        92.1602   50.8128  269.9492 H         1 UNK         0.0000 
     42 H42        92.6820   52.9469  271.0560 H         1 UNK         0.0000 
     43 H43        94.3579   54.4739  270.1171 H         1 UNK         0.0000 
     44 H44        95.0346   51.7174  266.8952 H         1 UNK         0.0000 
     45 H45        96.7832   55.7693  267.6972 H         1 UNK         0.0000 
     46 H46        96.5109   55.1557  269.3242 H         1 UNK         0.0000 
     47 H47        95.1871   55.9195  268.4266 H         1 UNK         0.0000 
@<TRIPOS>BOND
     1    1    2 ar   
     2    1    5 ar   
     3    1   30 1    
     4    2    3 ar   
     5    2   11 1    
     6    3    4 ar   
     7    3   31 1    
     8    4    6 ar   
     9    4   22 1    
    10    5    6 ar   
    11    5   10 ar   
    12    6    7 ar   
    13    7    8 ar   
    14    8    9 ar   
    15    8   32 1    
    16    9   10 ar   
    17    9   33 1    
    18   11   12 1    
    19   11   34 1    
    20   12   13 ar   
    21   12   17 ar   
    22   13   14 ar   
    23   13   35 1    
    24   14   15 ar   
    25   15   16 ar   
    26   15   36 1    
    27   16   17 ar   
    28   16   37 1    
    29   17   18 1    
    30   18   19 2    
    31   18   20 2    
    32   18   21 1    
    33   21   38 1    
    34   21   39 1    
    35   21   40 1    
    36   22   23 ar   
    37   22   27 ar   
    38   23   24 ar   
    39   23   41 1    
    40   24   25 ar   
    41   24   42 1    
    42   25   26 ar   
    43   25   43 1    
    44   26   27 ar   
    45   26   28 1    
    46   27   44 1    
    47   28   29 1    
    48   29   45 1    
    49   29   46 1    
    50   29   47 1    
@<TRIPOS>SUBSTRUCTURE
     1 UNK         1 GROUP             0       ****    0 ROOT    
