@<TRIPOS>MOLECULE
65
45   49    1
SMALL
USER_CHARGES


@<TRIPOS>ATOM
      1 C1         93.2872   49.7956  267.6944 C.ar      1 UNK         0.0000 
      2 C2         92.5687   47.3376  266.4857 C.ar      1 UNK         0.0000 
      3 C3         91.6146   48.3304  266.6749 C.ar      1 UNK         0.0000 
      4 C4         91.9729   49.5341  267.2820 C.ar      1 UNK         0.0000 
      5 C5         93.8980   47.5350  266.9247 C.ar      1 UNK         0.0000 
      6 C6         94.2694   48.7811  267.5256 C.ar      1 UNK         0.0000 
      7 N7         95.5628   48.9608  267.9474 N.ar      1 UNK         0.0000 
      8 C8         96.4512   47.9559  267.7583 C.ar      1 UNK         0.0000 
      9 C9         96.0630   46.7394  267.2050 C.ar      1 UNK         0.0000 
     10 N10        94.7992   46.5230  266.7822 N.ar      1 UNK         0.0000 
     11 C11        89.7144   47.3441  265.2867 C.ar      1 UNK         0.0000 
     12 C12        90.4092   47.1460  264.0888 C.ar      1 UNK         0.0000 
     13 N13        89.9096   46.4507  263.0377 N.ar      1 UNK         0.0000 
     14 C14        88.6543   45.9413  263.1621 C.ar      1 UNK         0.0000 
     15 C15        87.8854   46.0879  264.3158 C.ar      1 UNK         0.0000 
     16 C16        88.4232   46.7977  265.3980 C.ar      1 UNK         0.0000 
     17 S17        87.4784   46.8853  266.9220 S.o2      1 UNK         0.0000 
     18 O18        86.1276   46.3963  266.6637 O.2       1 UNK         0.0000 
     19 C19        88.3703   45.6287  268.0030 C.3       1 UNK         0.0000 
     20 O20        87.6748   48.2291  267.4909 O.2       1 UNK         0.0000 
     21 N21        90.2732   48.1194  266.3138 N.pl3     1 UNK         0.0000 
     22 C22        93.5885   51.1029  268.3430 C.ar      1 UNK         0.0000 
     23 C23        94.5710   51.9460  267.8128 C.ar      1 UNK         0.0000 
     24 C24        94.8648   53.1857  268.4025 C.ar      1 UNK         0.0000 
     25 C25        92.8911   51.4690  269.4891 C.ar      1 UNK         0.0000 
     26 C26        93.1676   52.6956  270.0909 C.ar      1 UNK         0.0000 
     27 C27        94.1496   53.5503  269.5479 C.ar      1 UNK         0.0000 
     28 S28        94.2519   54.9826  270.5782 S.3       1 UNK         0.0000 
     29 C29        93.0165   54.3044  271.5748 C.2       1 UNK         0.0000 
     30 N30        92.5431   53.1496  271.2157 N.2       1 UNK         0.0000 
     31 H31        92.2833   46.3865  266.0492 H         1 UNK         0.0000 
     32 H32        91.2132   50.2842  267.4310 H         1 UNK         0.0000 
     33 H33        97.4754   48.1488  268.0479 H         1 UNK         0.0000 
     34 H34        96.7730   45.9425  267.0419 H         1 UNK         0.0000 
     35 H35        91.4107   47.5214  263.9722 H         1 UNK         0.0000 
     36 H36        88.2682   45.3847  262.3195 H         1 UNK         0.0000 
     37 H37        86.9002   45.6358  264.3812 H         1 UNK         0.0000 
     38 H38        87.8462   45.5122  268.9561 H         1 UNK         0.0000 
     39 H39        89.3922   45.9759  268.1641 H         1 UNK         0.0000 
     40 H40        88.3733   44.6715  267.4858 H         1 UNK         0.0000 
     41 H41        89.5715   48.5931  266.8725 H         1 UNK         0.0000 
     42 H42        95.0968   51.6566  266.9236 H         1 UNK         0.0000 
     43 H43        95.6212   53.8241  267.9680 H         1 UNK         0.0000 
     44 H44        92.1446   50.8081  269.9236 H         1 UNK         0.0000 
     45 H45        92.6755   54.8393  272.4460 H         1 UNK         0.0000 
@<TRIPOS>BOND
     1    1    4 ar   
     2    1    6 ar   
     3    1   22 1    
     4    2    3 ar   
     5    2    5 ar   
     6    2   31 1    
     7    3    4 ar   
     8    3   21 1    
     9    4   32 1    
    10    5    6 ar   
    11    5   10 ar   
    12    6    7 ar   
    13    7    8 ar   
    14    8    9 ar   
    15    8   33 1    
    16    9   10 ar   
    17    9   34 1    
    18   11   12 ar   
    19   11   16 ar   
    20   11   21 1    
    21   12   13 ar   
    22   12   35 1    
    23   13   14 ar   
    24   14   15 ar   
    25   14   36 1    
    26   15   16 ar   
    27   15   37 1    
    28   16   17 1    
    29   17   18 2    
    30   17   19 1    
    31   17   20 2    
    32   19   38 1    
    33   19   39 1    
    34   19   40 1    
    35   21   41 1    
    36   22   23 ar   
    37   22   25 ar   
    38   23   24 ar   
    39   23   42 1    
    40   24   27 ar   
    41   24   43 1    
    42   25   26 ar   
    43   25   44 1    
    44   26   27 ar   
    45   26   30 1    
    46   27   28 1    
    47   28   29 1    
    48   29   30 2    
    49   29   45 1    
@<TRIPOS>SUBSTRUCTURE
     1 UNK         1 GROUP             0       ****    0 ROOT    
