@<TRIPOS>MOLECULE
43
43   46    1
SMALL
USER_CHARGES


@<TRIPOS>ATOM
      1 C1         93.2801   49.7948  267.6926 C.ar      1 UNK         0.0000 
      2 C2         92.5697   47.3273  266.4879 C.ar      1 UNK         0.0000 
      3 C3         91.6101   48.3227  266.6794 C.ar      1 UNK         0.0000 
      4 C4         91.9699   49.5231  267.2872 C.ar      1 UNK         0.0000 
      5 C5         93.8968   47.5279  266.9313 C.ar      1 UNK         0.0000 
      6 C6         94.2695   48.7730  267.5260 C.ar      1 UNK         0.0000 
      7 N7         95.5576   48.9586  267.9485 N.ar      1 UNK         0.0000 
      8 C8         96.4495   47.9531  267.7601 C.ar      1 UNK         0.0000 
      9 C9         96.0662   46.7381  267.2124 C.ar      1 UNK         0.0000 
     10 N10        94.7965   46.5169  266.7871 N.ar      1 UNK         0.0000 
     11 C11        93.5926   51.1080  268.3254 C.ar      1 UNK         0.0000 
     12 C12        93.0431   51.4518  269.5675 C.ar      1 UNK         0.0000 
     13 C13        93.3489   52.6803  270.1568 C.ar      1 UNK         0.0000 
     14 C14        94.2002   53.5732  269.5104 C.ar      1 UNK         0.0000 
     15 C15        94.7102   53.2574  268.2528 C.ar      1 UNK         0.0000 
     16 C16        94.4268   52.0279  267.6749 C.ar      1 UNK         0.0000 
     17 N17        90.2713   48.1126  266.3137 N.pl3     1 UNK         0.0000 
     18 C18        89.7145   47.3382  265.2871 C.ar      1 UNK         0.0000 
     19 C19        90.4125   47.1278  264.0926 C.ar      1 UNK         0.0000 
     20 N20        89.9049   46.4459  263.0330 N.ar      1 UNK         0.0000 
     21 C21        88.6524   45.9395  263.1609 C.ar      1 UNK         0.0000 
     22 C22        87.8830   46.0841  264.3170 C.ar      1 UNK         0.0000 
     23 C23        88.4216   46.7951  265.3953 C.ar      1 UNK         0.0000 
     24 S24        87.4809   46.8875  266.9255 S.o2      1 UNK         0.0000 
     25 O25        86.1229   46.4026  266.6623 O.2       1 UNK         0.0000 
     26 O26        87.6858   48.2236  267.4941 O.2       1 UNK         0.0000 
     27 C27        88.3659   45.6223  267.9978 C.3       1 UNK         0.0000 
     28 Br28       95.7702   54.5153  267.3088 Br        1 UNK         0.0000 
     29 H29        92.2845   46.3806  266.0483 H         1 UNK         0.0000 
     30 H30        91.2071   50.2769  267.4318 H         1 UNK         0.0000 
     31 H31        97.4743   48.1503  268.0502 H         1 UNK         0.0000 
     32 H32        96.7761   45.9410  267.0505 H         1 UNK         0.0000 
     33 H33        92.3934   50.7654  270.0803 H         1 UNK         0.0000 
     34 H34        92.9287   52.9349  271.1181 H         1 UNK         0.0000 
     35 H35        94.4175   54.5360  269.9608 H         1 UNK         0.0000 
     36 H36        94.8274   51.7986  266.6985 H         1 UNK         0.0000 
     37 H37        89.5702   48.5863  266.8724 H         1 UNK         0.0000 
     38 H38        91.4072   47.5171  263.9719 H         1 UNK         0.0000 
     39 H39        88.2658   45.3835  262.3188 H         1 UNK         0.0000 
     40 H40        86.9009   45.6304  264.3829 H         1 UNK         0.0000 
     41 H41        87.8375   45.5096  268.9490 H         1 UNK         0.0000 
     42 H42        89.3862   45.9688  268.1678 H         1 UNK         0.0000 
     43 H43        88.3764   44.6703  267.4706 H         1 UNK         0.0000 
@<TRIPOS>BOND
     1    1    4 ar   
     2    1    6 ar   
     3    1   11 1    
     4    2    3 ar   
     5    2    5 ar   
     6    2   29 1    
     7    3    4 ar   
     8    3   17 1    
     9    4   30 1    
    10    5    6 ar   
    11    5   10 ar   
    12    6    7 ar   
    13    7    8 ar   
    14    8    9 ar   
    15    8   31 1    
    16    9   10 ar   
    17    9   32 1    
    18   11   12 ar   
    19   11   16 ar   
    20   12   13 ar   
    21   12   33 1    
    22   13   14 ar   
    23   13   34 1    
    24   14   15 ar   
    25   14   35 1    
    26   15   16 ar   
    27   15   28 1    
    28   16   36 1    
    29   17   18 1    
    30   17   37 1    
    31   18   19 ar   
    32   18   23 ar   
    33   19   20 ar   
    34   19   38 1    
    35   20   21 ar   
    36   21   22 ar   
    37   21   39 1    
    38   22   23 ar   
    39   22   40 1    
    40   23   24 1    
    41   24   25 2    
    42   24   26 2    
    43   24   27 1    
    44   27   41 1    
    45   27   42 1    
    46   27   43 1    
@<TRIPOS>SUBSTRUCTURE
     1 UNK         1 GROUP             0       ****    0 ROOT    
