@<TRIPOS>MOLECULE
42
47   50    1
SMALL
USER_CHARGES


@<TRIPOS>ATOM
      1 C1         93.2875   49.7838  267.6770 C.ar      1 UNK         0.0000 
      2 C2         92.5724   47.3125  266.4966 C.ar      1 UNK         0.0000 
      3 C3         91.6143   48.3091  266.6745 C.ar      1 UNK         0.0000 
      4 C4         91.9734   49.5126  267.2693 C.ar      1 UNK         0.0000 
      5 C5         93.8983   47.5150  266.9402 C.ar      1 UNK         0.0000 
      6 C6         94.2747   48.7631  267.5237 C.ar      1 UNK         0.0000 
      7 N7         95.5632   48.9601  267.9551 N.ar      1 UNK         0.0000 
      8 C8         96.4531   47.9523  267.7789 C.ar      1 UNK         0.0000 
      9 C9         96.0721   46.7327  267.2263 C.ar      1 UNK         0.0000 
     10 N10        94.8009   46.4988  266.8238 N.ar      1 UNK         0.0000 
     11 C11        93.5911   51.0854  268.3137 C.ar      1 UNK         0.0000 
     12 C12        92.8469   51.5645  269.4014 C.ar      1 UNK         0.0000 
     13 C13        93.1400   52.7949  269.9867 C.ar      1 UNK         0.0000 
     14 C14        94.6339   51.8738  267.8239 C.ar      1 UNK         0.0000 
     15 N15        90.2801   48.1021  266.3129 N.pl3     1 UNK         0.0000 
     16 C16        89.7132   47.3295  265.2851 C.ar      1 UNK         0.0000 
     17 C17        90.4095   47.1212  264.0895 C.ar      1 UNK         0.0000 
     18 N18        89.8943   46.4354  263.0351 N.ar      1 UNK         0.0000 
     19 C19        88.6421   45.9295  263.1649 C.ar      1 UNK         0.0000 
     20 C20        87.8836   46.0722  264.3230 C.ar      1 UNK         0.0000 
     21 C21        88.4211   46.7936  265.3951 C.ar      1 UNK         0.0000 
     22 S22        87.4795   46.9124  266.9240 S.o2      1 UNK         0.0000 
     23 O23        86.1188   46.4328  266.6652 O.2       1 UNK         0.0000 
     24 O24        87.6945   48.2548  267.4760 O.2       1 UNK         0.0000 
     25 C25        88.3552   45.6686  268.0255 C.3       1 UNK         0.0000 
     26 C26        94.9298   53.1047  268.3962 C.ar      1 UNK         0.0000 
     27 C27        94.2024   53.5588  269.5010 C.ar      1 UNK         0.0000 
     28 C28        96.0833   55.7215  268.3802 C.3       1 UNK         0.0000 
     29 S29        96.1817   54.0755  267.6506 S.3       1 UNK         0.0000 
     30 H30        92.2931   46.3625  266.0674 H         1 UNK         0.0000 
     31 H31        91.2162   50.2704  267.4061 H         1 UNK         0.0000 
     32 H32        97.4741   48.1517  268.0664 H         1 UNK         0.0000 
     33 H33        96.7829   45.9289  267.0901 H         1 UNK         0.0000 
     34 H34        92.0296   50.9757  269.8043 H         1 UNK         0.0000 
     35 H35        92.5765   53.1471  270.8375 H         1 UNK         0.0000 
     36 H36        95.1927   51.5424  266.9621 H         1 UNK         0.0000 
     37 H37        89.5863   48.5720  266.8822 H         1 UNK         0.0000 
     38 H38        91.4058   47.5156  263.9586 H         1 UNK         0.0000 
     39 H39        88.2563   45.3792  262.3224 H         1 UNK         0.0000 
     40 H40        86.9089   45.6181  264.3929 H         1 UNK         0.0000 
     41 H41        87.8313   45.6086  268.9799 H         1 UNK         0.0000 
     42 H42        89.3842   45.9944  268.1686 H         1 UNK         0.0000 
     43 H43        88.3348   44.7037  267.5293 H         1 UNK         0.0000 
     44 H44        94.4208   54.5069  269.9694 H         1 UNK         0.0000 
     45 H45        96.7764   56.3647  267.8329 H         1 UNK         0.0000 
     46 H46        96.3260   55.6602  269.4465 H         1 UNK         0.0000 
     47 H47        95.0813   56.1420  268.2849 H         1 UNK         0.0000 
@<TRIPOS>BOND
     1    1    4 ar   
     2    1    6 ar   
     3    1   11 1    
     4    2    3 ar   
     5    2    5 ar   
     6    2   30 1    
     7    3    4 ar   
     8    3   15 1    
     9    4   31 1    
    10    5    6 ar   
    11    5   10 ar   
    12    6    7 ar   
    13    7    8 ar   
    14    8    9 ar   
    15    8   32 1    
    16    9   10 ar   
    17    9   33 1    
    18   11   12 ar   
    19   11   14 ar   
    20   12   13 ar   
    21   12   34 1    
    22   13   27 ar   
    23   13   35 1    
    24   14   26 ar   
    25   14   36 1    
    26   15   16 1    
    27   15   37 1    
    28   16   17 ar   
    29   16   21 ar   
    30   17   18 ar   
    31   17   38 1    
    32   18   19 ar   
    33   19   20 ar   
    34   19   39 1    
    35   20   21 ar   
    36   20   40 1    
    37   21   22 1    
    38   22   23 2    
    39   22   24 2    
    40   22   25 1    
    41   25   41 1    
    42   25   42 1    
    43   25   43 1    
    44   26   27 ar   
    45   26   29 1    
    46   27   44 1    
    47   28   29 1    
    48   28   45 1    
    49   28   46 1    
    50   28   47 1    
@<TRIPOS>SUBSTRUCTURE
     1 UNK         1 GROUP             0       ****    0 ROOT    
