@<TRIPOS>MOLECULE
31
48   52    1
SMALL
USER_CHARGES


@<TRIPOS>ATOM
      1 N1         90.2734   48.1373  266.3119 N.pl3     1 UNK         0.0000 
      2 C2         91.6117   48.3398  266.6726 C.ar      1 UNK         0.0000 
      3 C3         91.9712   49.5358  267.2869 C.ar      1 UNK         0.0000 
      4 C4         93.2859   49.8045  267.6861 C.ar      1 UNK         0.0000 
      5 C5         92.5671   47.3483  266.4685 C.ar      1 UNK         0.0000 
      6 C6         93.8944   47.5452  266.9039 C.ar      1 UNK         0.0000 
      7 C7         94.2720   48.7853  267.5093 C.ar      1 UNK         0.0000 
      8 N8         95.5613   48.9672  267.9330 N.ar      1 UNK         0.0000 
      9 C9         96.4474   47.9577  267.7413 C.ar      1 UNK         0.0000 
     10 C10        96.0603   46.7471  267.1804 C.ar      1 UNK         0.0000 
     11 N11        94.7948   46.5347  266.7539 N.ar      1 UNK         0.0000 
     12 C12        93.5898   51.1081  268.3324 C.ar      1 UNK         0.0000 
     13 C13        94.5658   51.9591  267.8021 C.ar      1 UNK         0.0000 
     14 C14        94.8582   53.1934  268.3840 C.ar      1 UNK         0.0000 
     15 C15        92.8861   51.4597  269.4865 C.ar      1 UNK         0.0000 
     16 N16        92.7260   53.2479  271.2608 N.pl3     1 UNK         0.0000 
     17 C17        93.1982   52.6767  270.0937 C.ar      1 UNK         0.0000 
     18 C18        94.1524   53.5738  269.5353 C.ar      1 UNK         0.0000 
     19 C19        94.1575   54.7293  270.3755 C.ar      1 UNK         0.0000 
     20 C20        93.3428   54.4594  271.4429 C.ar      1 UNK         0.0000 
     21 C21        91.7409   52.6665  272.1542 C.3       1 UNK         0.0000 
     22 C22        90.4241   47.1199  264.0974 C.ar      1 UNK         0.0000 
     23 C23        89.7187   47.3508  265.2862 C.ar      1 UNK         0.0000 
     24 C24        88.4205   46.8190  265.4083 C.ar      1 UNK         0.0000 
     25 C25        87.8923   46.0966  264.3222 C.ar      1 UNK         0.0000 
     26 C26        88.6643   45.9320  263.1722 C.ar      1 UNK         0.0000 
     27 N27        89.9182   46.4295  263.0460 N.ar      1 UNK         0.0000 
     28 O28        87.7289   47.0297  266.5905 O.3       1 UNK         0.0000 
     29 C29        86.6417   46.1641  266.9159 C.3       1 UNK         0.0000 
     30 H30        89.5868   48.6125  266.8810 H         1 UNK         0.0000 
     31 H31        91.2113   50.2874  267.4491 H         1 UNK         0.0000 
     32 H32        92.2845   46.4012  266.0294 H         1 UNK         0.0000 
     33 H33        97.4673   48.1422  268.0436 H         1 UNK         0.0000 
     34 H34        96.7683   45.9465  267.0190 H         1 UNK         0.0000 
     35 H35        95.0959   51.6639  266.9069 H         1 UNK         0.0000 
     36 H36        95.6099   53.8355  267.9427 H         1 UNK         0.0000 
     37 H37        92.1435   50.7994  269.9124 H         1 UNK         0.0000 
     38 H38        94.7478   55.6229  270.2556 H         1 UNK         0.0000 
     39 H39        93.1309   55.0547  272.3177 H         1 UNK         0.0000 
     40 H40        92.1012   51.7055  272.5204 H         1 UNK         0.0000 
     41 H41        90.8126   52.5158  271.6044 H         1 UNK         0.0000 
     42 H42        91.5524   53.3252  273.0018 H         1 UNK         0.0000 
     43 H43        91.4231   47.5030  263.9698 H         1 UNK         0.0000 
     44 H44        86.9039   45.6606  264.3509 H         1 UNK         0.0000 
     45 H45        88.2760   45.3830  262.3272 H         1 UNK         0.0000 
     46 H46        86.2357   46.4597  267.8831 H         1 UNK         0.0000 
     47 H47        86.9586   45.1221  266.9987 H         1 UNK         0.0000 
     48 H48        85.8268   46.2288  266.1940 H         1 UNK         0.0000 
@<TRIPOS>BOND
     1    1    2 1    
     2    1   23 1    
     3    1   30 1    
     4    2    3 ar   
     5    2    5 ar   
     6    3    4 ar   
     7    3   31 1    
     8    4    7 ar   
     9    4   12 1    
    10    5    6 ar   
    11    5   32 1    
    12    6    7 ar   
    13    6   11 ar   
    14    7    8 ar   
    15    8    9 ar   
    16    9   10 ar   
    17    9   33 1    
    18   10   11 ar   
    19   10   34 1    
    20   12   13 ar   
    21   12   15 ar   
    22   13   14 ar   
    23   13   35 1    
    24   14   18 ar   
    25   14   36 1    
    26   15   17 ar   
    27   15   37 1    
    28   16   17 ar   
    29   16   20 ar   
    30   16   21 1    
    31   17   18 ar   
    32   18   19 ar   
    33   19   20 ar   
    34   19   38 1    
    35   20   39 1    
    36   21   40 1    
    37   21   41 1    
    38   21   42 1    
    39   22   23 ar   
    40   22   27 ar   
    41   22   43 1    
    42   23   24 ar   
    43   24   25 ar   
    44   24   28 1    
    45   25   26 ar   
    46   25   44 1    
    47   26   27 ar   
    48   26   45 1    
    49   28   29 1    
    50   29   46 1    
    51   29   47 1    
    52   29   48 1    
@<TRIPOS>SUBSTRUCTURE
     1 UNK         1 GROUP             0       ****    0 ROOT    
