@<TRIPOS>MOLECULE
34
48   52    1
SMALL
USER_CHARGES


@<TRIPOS>ATOM
      1 C1         92.5675   47.3476  266.4818 C.ar      1 UNK         0.0000 
      2 C2         91.6195   48.3446  266.6702 C.ar      1 UNK         0.0000 
      3 C3         91.9774   49.5404  267.2822 C.ar      1 UNK         0.0000 
      4 C4         93.2882   49.8046  267.6879 C.ar      1 UNK         0.0000 
      5 C5         94.2739   48.7854  267.5113 C.ar      1 UNK         0.0000 
      6 C6         93.8948   47.5437  266.9102 C.ar      1 UNK         0.0000 
      7 N7         94.7936   46.5330  266.7587 N.ar      1 UNK         0.0000 
      8 N8         95.5623   48.9682  267.9318 N.ar      1 UNK         0.0000 
      9 C9         96.4466   47.9594  267.7367 C.ar      1 UNK         0.0000 
     10 C10        96.0613   46.7461  267.1800 C.ar      1 UNK         0.0000 
     11 N11        90.2825   48.1494  266.3000 N.pl3     1 UNK         0.0000 
     12 C12        93.5910   51.1031  268.3371 C.ar      1 UNK         0.0000 
     13 C13        94.5701   51.9487  267.7934 C.ar      1 UNK         0.0000 
     14 C14        94.8764   53.1831  268.3626 C.ar      1 UNK         0.0000 
     15 C15        94.1738   53.5765  269.5033 C.ar      1 UNK         0.0000 
     16 C16        93.2106   52.6774  270.0808 C.ar      1 UNK         0.0000 
     17 C17        92.8955   51.4555  269.4914 C.ar      1 UNK         0.0000 
     18 C18        94.1940   54.7417  270.3236 C.ar      1 UNK         0.0000 
     19 C19        93.3211   54.5038  271.3418 C.ar      1 UNK         0.0000 
     20 N20        92.7601   53.2789  271.2412 N.pl3     1 UNK         0.0000 
     21 C21        89.7058   47.3516  265.2944 C.ar      1 UNK         0.0000 
     22 C22        91.8506   52.7297  272.2448 C.3       1 UNK         0.0000 
     23 C23        88.4003   46.8132  265.3997 C.ar      1 UNK         0.0000 
     24 C24        87.8903   46.1026  264.3004 C.ar      1 UNK         0.0000 
     25 C25        88.6717   45.9405  263.1626 C.ar      1 UNK         0.0000 
     26 N26        89.9225   46.4384  263.0456 N.ar      1 UNK         0.0000 
     27 C27        90.4118   47.1270  264.1049 C.ar      1 UNK         0.0000 
     28 C28        87.5461   46.9593  266.6443 C.2       1 UNK         0.0000 
     29 N29        86.6807   45.9742  266.8909 N.am      1 UNK         0.0000 
     30 O30        87.6482   47.9220  267.4000 O.2       1 UNK         0.0000 
     31 H31        92.2748   46.4011  266.0567 H         1 UNK         0.0000 
     32 H32        91.2199   50.2936  267.4430 H         1 UNK         0.0000 
     33 H33        97.4656   48.1565  268.0267 H         1 UNK         0.0000 
     34 H34        96.7640   45.9455  267.0078 H         1 UNK         0.0000 
     35 H35        89.5926   48.5988  266.8874 H         1 UNK         0.0000 
     36 H36        95.0905   51.6544  266.8946 H         1 UNK         0.0000 
     37 H37        95.6297   53.8262  267.9199 H         1 UNK         0.0000 
     38 H38        92.1403   50.8031  269.9237 H         1 UNK         0.0000 
     39 H39        94.7911   55.6375  270.2450 H         1 UNK         0.0000 
     40 H40        93.0724   55.1133  272.1872 H         1 UNK         0.0000 
     41 H41        91.7082   53.4641  273.0433 H         1 UNK         0.0000 
     42 H42        92.2985   51.8398  272.6819 H         1 UNK         0.0000 
     43 H43        90.8892   52.5140  271.7869 H         1 UNK         0.0000 
     44 H44        86.8976   45.6795  264.3121 H         1 UNK         0.0000 
     45 H45        88.2724   45.3933  262.3292 H         1 UNK         0.0000 
     46 H46        91.4048   47.5141  263.9802 H         1 UNK         0.0000 
     47 H47        86.0899   46.0225  267.7060 H         1 UNK         0.0000 
     48 H48        86.6017   45.1896  266.2549 H         1 UNK         0.0000 
@<TRIPOS>BOND
     1    1    2 ar   
     2    1    6 ar   
     3    1   31 1    
     4    2    3 ar   
     5    2   11 1    
     6    3    4 ar   
     7    3   32 1    
     8    4    5 ar   
     9    4   12 1    
    10    5    6 ar   
    11    5    8 ar   
    12    6    7 ar   
    13    7   10 ar   
    14    8    9 ar   
    15    9   10 ar   
    16    9   33 1    
    17   10   34 1    
    18   11   21 1    
    19   11   35 1    
    20   12   13 ar   
    21   12   17 ar   
    22   13   14 ar   
    23   13   36 1    
    24   14   15 ar   
    25   14   37 1    
    26   15   18 ar   
    27   15   16 ar   
    28   16   17 ar   
    29   16   20 ar   
    30   17   38 1    
    31   18   19 ar   
    32   18   39 1    
    33   19   20 ar   
    34   19   40 1    
    35   20   22 1    
    36   21   27 ar   
    37   21   23 ar   
    38   22   41 1    
    39   22   42 1    
    40   22   43 1    
    41   23   24 ar   
    42   23   28 1    
    43   24   25 ar   
    44   24   44 1    
    45   25   26 ar   
    46   25   45 1    
    47   26   27 ar   
    48   27   46 1    
    49   28   29 am   BACKBONE|DICT|INTERRES
    50   28   30 2    
    51   29   47 1    
    52   29   48 1    
@<TRIPOS>SUBSTRUCTURE
     1 UNK         1 GROUP             0       ****    0 ROOT    
