@<TRIPOS>MOLECULE
36
53   57    1
SMALL
USER_CHARGES


@<TRIPOS>ATOM
      1 C1         92.5019   47.4809  266.5012 C.ar      1 UNK         0.0000 
      2 C2         91.4857   48.4054  266.7703 C.ar      1 UNK         0.0000 
      3 C3         91.8311   49.6033  267.4005 C.ar      1 UNK         0.0000 
      4 C4         93.1329   49.9008  267.8027 C.ar      1 UNK         0.0000 
      5 C5         93.8203   47.7090  266.9243 C.ar      1 UNK         0.0000 
      6 C6         94.1662   48.9379  267.5838 C.ar      1 UNK         0.0000 
      7 N7         95.4395   49.1394  268.0247 N.ar      1 UNK         0.0000 
      8 C8         96.3424   48.1461  267.8444 C.ar      1 UNK         0.0000 
      9 C9         96.0073   46.9541  267.2235 C.ar      1 UNK         0.0000 
     10 N10        94.7573   46.7424  266.7458 N.ar      1 UNK         0.0000 
     11 C11        93.3550   51.1745  268.5297 C.ar      1 UNK         0.0000 
     12 C12        94.3019   52.0919  268.1026 C.ar      1 UNK         0.0000 
     13 C13        94.5054   53.3019  268.7680 C.ar      1 UNK         0.0000 
     14 C14        92.5738   51.4295  269.6693 C.ar      1 UNK         0.0000 
     15 C15        92.8404   52.5915  270.3967 C.ar      1 UNK         0.0000 
     16 C16        93.7750   53.5611  269.9435 C.ar      1 UNK         0.0000 
     17 C17        93.7328   54.6344  270.8820 C.ar      1 UNK         0.0000 
     18 C18        92.9093   54.2418  271.9260 C.ar      1 UNK         0.0000 
     19 N19        92.3458   53.0191  271.6075 N.pl3     1 UNK         0.0000 
     20 N20        90.1525   48.0937  266.3996 N.pl3     1 UNK         0.0000 
     21 C21        91.3984   52.2974  272.4351 C.3       1 UNK         0.0000 
     22 C22        89.8025   47.1713  265.4107 C.ar      1 UNK         0.0000 
     23 C23        88.7064   46.2853  265.4708 C.ar      1 UNK         0.0000 
     24 C24        88.3920   45.5465  264.3239 C.ar      1 UNK         0.0000 
     25 C25        89.1630   45.7166  263.1759 C.ar      1 UNK         0.0000 
     26 N26        90.3008   46.4328  263.1436 N.ar      1 UNK         0.0000 
     27 C27        90.6083   47.1291  264.2614 C.ar      1 UNK         0.0000 
     28 S28        87.7536   46.0522  266.9862 S.o2      1 UNK         0.0000 
     29 O29        87.6334   47.3703  267.6019 O.2       1 UNK         0.0000 
     30 O30        86.5414   45.3174  266.6269 O.2       1 UNK         0.0000 
     31 C31        88.7842   44.9495  268.1463 C.3       1 UNK         0.0000 
     32 C32        89.0277   48.5933  267.1930 C.3       1 UNK         0.0000 
     33 H33        92.2739   46.5354  266.0341 H         1 UNK         0.0000 
     34 H34        91.0802   50.3370  267.6197 H         1 UNK         0.0000 
     35 H35        97.3500   48.3260  268.1900 H         1 UNK         0.0000 
     36 H36        96.7164   46.1616  267.0807 H         1 UNK         0.0000 
     37 H37        94.8847   51.8876  267.2116 H         1 UNK         0.0000 
     38 H38        95.2293   54.0106  268.4023 H         1 UNK         0.0000 
     39 H39        91.8324   50.7201  269.9931 H         1 UNK         0.0000 
     40 H40        94.2804   55.5661  270.8313 H         1 UNK         0.0000 
     41 H41        92.6568   54.7230  272.8364 H         1 UNK         0.0000 
     42 H42        91.2584   52.7970  273.3926 H         1 UNK         0.0000 
     43 H43        91.7765   51.2904  272.6187 H         1 UNK         0.0000 
     44 H44        90.4452   52.2301  271.9110 H         1 UNK         0.0000 
     45 H45        87.6107   44.8283  264.3234 H         1 UNK         0.0000 
     46 H46        88.8449   45.2396  262.2594 H         1 UNK         0.0000 
     47 H47        91.4889   47.7368  264.2338 H         1 UNK         0.0000 
     48 H48        88.2085   44.8033  269.0647 H         1 UNK         0.0000 
     49 H49        89.7347   45.4322  268.3765 H         1 UNK         0.0000 
     50 H50        88.9505   43.9840  267.6632 H         1 UNK         0.0000 
     51 H51        88.8013   47.8870  268.0013 H         1 UNK         0.0000 
     52 H52        88.1379   48.7100  266.5759 H         1 UNK         0.0000 
     53 H53        89.2234   49.5809  267.6275 H         1 UNK         0.0000 
@<TRIPOS>BOND
     1    1    2 ar   
     2    1    5 ar   
     3    1   33 1    
     4    2    3 ar   
     5    2   20 1    
     6    3    4 ar   
     7    3   34 1    
     8    4    6 ar   
     9    4   11 1    
    10    5    6 ar   
    11    5   10 ar   
    12    6    7 ar   
    13    7    8 ar   
    14    8    9 ar   
    15    8   35 1    
    16    9   10 ar   
    17    9   36 1    
    18   11   12 ar   
    19   11   14 ar   
    20   12   13 ar   
    21   12   37 1    
    22   13   16 ar   
    23   13   38 1    
    24   14   15 ar   
    25   14   39 1    
    26   15   16 ar   
    27   15   19 ar   
    28   16   17 ar   
    29   17   18 ar   
    30   17   40 1    
    31   18   19 ar   
    32   18   41 1    
    33   19   21 1    
    34   20   22 1    
    35   20   32 1    
    36   21   42 1    
    37   21   43 1    
    38   21   44 1    
    39   22   23 ar   
    40   22   27 ar   
    41   23   24 ar   
    42   23   28 1    
    43   24   25 ar   
    44   24   45 1    
    45   25   26 ar   
    46   25   46 1    
    47   26   27 ar   
    48   27   47 1    
    49   28   29 2    
    50   28   30 2    
    51   28   31 1    
    52   31   48 1    
    53   31   49 1    
    54   31   50 1    
    55   32   51 1    
    56   32   52 1    
    57   32   53 1    
@<TRIPOS>SUBSTRUCTURE
     1 UNK         1 GROUP             0       ****    0 ROOT    
