@<TRIPOS>MOLECULE
41
47   50    1
SMALL
USER_CHARGES


@<TRIPOS>ATOM
      1 C1         93.2782   49.7896  267.6853 C.ar      1 UNK         0.0000 
      2 C2         92.5645   47.3279  266.4843 C.ar      1 UNK         0.0000 
      3 C3         91.6114   48.3242  266.6766 C.ar      1 UNK         0.0000 
      4 C4         91.9687   49.5189  267.2814 C.ar      1 UNK         0.0000 
      5 C5         93.8940   47.5285  266.9239 C.ar      1 UNK         0.0000 
      6 C6         94.2716   48.7689  267.5195 C.ar      1 UNK         0.0000 
      7 N7         95.5595   48.9594  267.9444 N.ar      1 UNK         0.0000 
      8 C8         96.4507   47.9529  267.7597 C.ar      1 UNK         0.0000 
      9 C9         96.0667   46.7376  267.2079 C.ar      1 UNK         0.0000 
     10 N10        94.7985   46.5177  266.7833 N.ar      1 UNK         0.0000 
     11 C11        93.5961   51.0950  268.3176 C.ar      1 UNK         0.0000 
     12 C12        92.8354   51.5850  269.3805 C.ar      1 UNK         0.0000 
     13 C13        93.1459   52.8020  269.9772 C.ar      1 UNK         0.0000 
     14 C14        94.2185   53.5485  269.5127 C.ar      1 UNK         0.0000 
     15 C15        94.9646   53.1033  268.4055 C.ar      1 UNK         0.0000 
     16 C16        94.6620   51.8657  267.8407 C.ar      1 UNK         0.0000 
     17 N17        90.2696   48.1131  266.3141 N.pl3     1 UNK         0.0000 
     18 C18        89.7134   47.3365  265.2841 C.ar      1 UNK         0.0000 
     19 C19        90.4132   47.1201  264.0930 C.ar      1 UNK         0.0000 
     20 N20        89.9020   46.4455  263.0351 N.ar      1 UNK         0.0000 
     21 C21        88.6551   45.9413  263.1596 C.ar      1 UNK         0.0000 
     22 C22        87.8824   46.0848  264.3154 C.ar      1 UNK         0.0000 
     23 C23        88.4203   46.7966  265.3977 C.ar      1 UNK         0.0000 
     24 S24        87.4762   46.8845  266.9224 S.o2      1 UNK         0.0000 
     25 O25        86.1286   46.4001  266.6639 O.2       1 UNK         0.0000 
     26 O26        87.6817   48.2276  267.4906 O.2       1 UNK         0.0000 
     27 C27        88.3690   45.6249  268.0119 C.3       1 UNK         0.0000 
     28 O28        95.9690   53.8069  267.7995 O.3       1 UNK         0.0000 
     29 C29        96.3470   55.0729  268.3310 C.3       1 UNK         0.0000 
     30 F30        97.3096   55.5398  267.5396 F         1 UNK         0.0000 
     31 F31        95.3611   55.9453  268.3259 F         1 UNK         0.0000 
     32 F32        96.7836   54.9621  269.5556 F         1 UNK         0.0000 
     33 H33        92.2832   46.3844  266.0477 H         1 UNK         0.0000 
     34 H34        91.2070   50.2776  267.4316 H         1 UNK         0.0000 
     35 H35        97.4740   48.1497  268.0475 H         1 UNK         0.0000 
     36 H36        96.7752   45.9403  267.0447 H         1 UNK         0.0000 
     37 H37        91.9978   51.0151  269.7584 H         1 UNK         0.0000 
     38 H38        92.5604   53.1755  270.8094 H         1 UNK         0.0000 
     39 H39        94.4210   54.4921  269.9893 H         1 UNK         0.0000 
     40 H40        95.2451   51.5271  266.9975 H         1 UNK         0.0000 
     41 H41        89.5686   48.5877  266.8693 H         1 UNK         0.0000 
     42 H42        91.4091   47.5207  263.9742 H         1 UNK         0.0000 
     43 H43        88.2678   45.3844  262.3197 H         1 UNK         0.0000 
     44 H44        86.9024   45.6345  264.3838 H         1 UNK         0.0000 
     45 H45        87.8428   45.5077  268.9515 H         1 UNK         0.0000 
     46 H46        89.3884   45.9738  268.1659 H         1 UNK         0.0000 
     47 H47        88.3746   44.6716  267.4801 H         1 UNK         0.0000 
@<TRIPOS>BOND
     1    1    4 ar   
     2    1    6 ar   
     3    1   11 1    
     4    2    3 ar   
     5    2    5 ar   
     6    2   33 1    
     7    3    4 ar   
     8    3   17 1    
     9    4   34 1    
    10    5    6 ar   
    11    5   10 ar   
    12    6    7 ar   
    13    7    8 ar   
    14    8    9 ar   
    15    8   35 1    
    16    9   10 ar   
    17    9   36 1    
    18   11   12 ar   
    19   11   16 ar   
    20   12   13 ar   
    21   12   37 1    
    22   13   14 ar   
    23   13   38 1    
    24   14   15 ar   
    25   14   39 1    
    26   15   16 ar   
    27   15   28 1    
    28   16   40 1    
    29   17   18 1    
    30   17   41 1    
    31   18   19 ar   
    32   18   23 ar   
    33   19   20 ar   
    34   19   42 1    
    35   20   21 ar   
    36   21   22 ar   
    37   21   43 1    
    38   22   23 ar   
    39   22   44 1    
    40   23   24 1    
    41   24   25 2    
    42   24   26 2    
    43   24   27 1    
    44   27   45 1    
    45   27   46 1    
    46   27   47 1    
    47   28   29 1    
    48   29   30 1    
    49   29   31 1    
    50   29   32 1    
@<TRIPOS>SUBSTRUCTURE
     1 UNK         1 GROUP             0       ****    0 ROOT    
