@<TRIPOS>MOLECULE
26
49   53    1
SMALL
USER_CHARGES


@<TRIPOS>ATOM
      1 C1         92.5604   47.3400  266.4645 C.ar      1 UNK         0.0000 
      2 C2         91.6033   48.3329  266.6623 C.ar      1 UNK         0.0000 
      3 C3         91.9663   49.5284  267.2832 C.ar      1 UNK         0.0000 
      4 C4         93.2809   49.8044  267.6816 C.ar      1 UNK         0.0000 
      5 C5         93.8899   47.5440  266.9028 C.ar      1 UNK         0.0000 
      6 C6         94.2681   48.7863  267.5062 C.ar      1 UNK         0.0000 
      7 N7         95.5594   48.9658  267.9286 N.ar      1 UNK         0.0000 
      8 C8         96.4477   47.9579  267.7347 C.ar      1 UNK         0.0000 
      9 C9         96.0603   46.7470  267.1752 C.ar      1 UNK         0.0000 
     10 N10        94.7960   46.5358  266.7511 N.ar      1 UNK         0.0000 
     11 C11        93.5929   51.1046  268.3258 C.ar      1 UNK         0.0000 
     12 N12        90.2555   48.1502  266.3103 N.pl3     1 UNK         0.0000 
     13 C13        94.5796   51.9524  267.7970 C.ar      1 UNK         0.0000 
     14 C14        94.8788   53.1903  268.3744 C.ar      1 UNK         0.0000 
     15 C15        92.8914   51.4478  269.4799 C.ar      1 UNK         0.0000 
     16 C16        93.2168   52.6679  270.0678 C.ar      1 UNK         0.0000 
     17 C17        94.1655   53.5690  269.5124 C.ar      1 UNK         0.0000 
     18 C18        94.1737   54.7307  270.3540 C.ar      1 UNK         0.0000 
     19 C19        93.2736   54.4902  271.3621 C.ar      1 UNK         0.0000 
     20 N20        92.7449   53.2407  271.2292 N.pl3     1 UNK         0.0000 
     21 C21        91.8199   52.6411  272.1840 C.3       1 UNK         0.0000 
     22 C22        89.6226   47.3651  265.3242 C.ar      1 UNK         0.0000 
     23 C23        88.2891   46.8965  265.4752 C.ar      1 UNK         0.0000 
     24 C24        87.7104   46.1731  264.4151 C.ar      1 UNK         0.0000 
     25 C25        88.4109   45.9091  263.2455 C.ar      1 UNK         0.0000 
     26 C26        89.7142   46.3643  263.1048 C.ar      1 UNK         0.0000 
     27 C27        90.3116   47.0903  264.1333 C.ar      1 UNK         0.0000 
     28 C28        87.4576   47.1549  266.7210 C.2       1 UNK         0.0000 
     29 O29        87.7195   48.0491  267.5179 O.2       1 UNK         0.0000 
     30 N30        86.4083   46.3619  266.9362 N.am      1 UNK         0.0000 
     31 H31        92.2719   46.3892  266.0366 H         1 UNK         0.0000 
     32 H32        91.2102   50.2834  267.4508 H         1 UNK         0.0000 
     33 H33        97.4642   48.1404  268.0445 H         1 UNK         0.0000 
     34 H34        96.7697   45.9473  267.0116 H         1 UNK         0.0000 
     35 H35        89.5894   48.6322  266.9039 H         1 UNK         0.0000 
     36 H36        95.1034   51.6528  266.8935 H         1 UNK         0.0000 
     37 H37        95.6282   53.8303  267.9247 H         1 UNK         0.0000 
     38 H38        92.1307   50.7998  269.9141 H         1 UNK         0.0000 
     39 H39        94.7826   55.6082  270.2355 H         1 UNK         0.0000 
     40 H40        92.9910   55.0873  272.2131 H         1 UNK         0.0000 
     41 H41        91.6021   53.3023  273.0329 H         1 UNK         0.0000 
     42 H42        92.2499   51.7252  272.5857 H         1 UNK         0.0000 
     43 H43        90.8831   52.3860  271.6903 H         1 UNK         0.0000 
     44 H44        86.6936   45.8078  264.4722 H         1 UNK         0.0000 
     45 H45        87.9337   45.3443  262.4572 H         1 UNK         0.0000 
     46 H46        90.2509   46.1545  262.1925 H         1 UNK         0.0000 
     47 H47        91.3188   47.4451  263.9869 H         1 UNK         0.0000 
     48 H48        85.8413   46.4915  267.7584 H         1 UNK         0.0000 
     49 H49        86.1993   45.6153  266.2911 H         1 UNK         0.0000 
@<TRIPOS>BOND
     1    1    2 ar   
     2    1    5 ar   
     3    1   31 1    
     4    2    3 ar   
     5    2   12 1    
     6    3    4 ar   
     7    3   32 1    
     8    4    6 ar   
     9    4   11 1    
    10    5    6 ar   
    11    5   10 ar   
    12    6    7 ar   
    13    7    8 ar   
    14    8    9 ar   
    15    8   33 1    
    16    9   10 ar   
    17    9   34 1    
    18   11   13 ar   
    19   11   15 ar   
    20   12   22 1    
    21   12   35 1    
    22   13   14 ar   
    23   13   36 1    
    24   14   17 ar   
    25   14   37 1    
    26   15   16 ar   
    27   15   38 1    
    28   16   17 ar   
    29   16   20 ar   
    30   17   18 ar   
    31   18   19 ar   
    32   18   39 1    
    33   19   20 ar   
    34   19   40 1    
    35   20   21 1    
    36   21   41 1    
    37   21   42 1    
    38   21   43 1    
    39   22   23 ar   
    40   22   27 ar   
    41   23   24 ar   
    42   23   28 1    
    43   24   25 ar   
    44   24   44 1    
    45   25   26 ar   
    46   25   45 1    
    47   26   27 ar   
    48   26   46 1    
    49   27   47 1    
    50   28   29 2    
    51   28   30 am   BACKBONE|DICT|INTERRES
    52   30   48 1    
    53   30   49 1    
@<TRIPOS>SUBSTRUCTURE
     1 UNK         1 GROUP             0       ****    0 ROOT    
