29
                    3D
 Schrodinger Suite 2021-2.
 41 43  0  0  1  0            999 V2000
    3.0900  -47.2504    6.7747 O   0  0  0  0  0  0
    3.0863  -48.4855    6.5974 C   0  0  0  0  0  0
    4.1511  -49.1309    6.6518 O   0  5  0  0  0  0
    1.7953  -49.1810    6.3522 C   0  0  0  0  0  0
    0.0202  -50.9573    6.3447 C   0  0  0  0  0  0
   -0.8407  -52.0632    6.4168 C   0  0  0  0  0  0
   -2.2170  -51.8957    6.1858 C   0  0  0  0  0  0
   -2.7295  -50.6268    5.8842 C   0  0  0  0  0  0
   -1.8581  -49.5384    5.7909 C   0  0  0  0  0  0
   -0.4683  -49.6764    6.0068 C   0  0  0  0  0  0
    0.5734  -48.7000    5.9545 C   0  0  0  0  0  0
    0.2448  -47.3095    5.6230 C   0  0  0  0  0  0
   -0.1713  -46.7848    6.9543 C   0  0  0  0  0  0
   -0.7090  -45.4534    6.9809 C   0  0  0  0  0  0
   -1.9563  -45.4326    6.3519 O   0  0  0  0  0  0
   -3.0626  -45.1684    7.0920 C   0  0  0  0  0  0
   -3.4344  -45.8754    8.2484 C   0  0  0  0  0  0
   -4.7420  -45.7252    8.7536 C   0  0  0  0  0  0
   -5.6579  -44.8869    8.0913 C   0  0  0  0  0  0
   -5.2664  -44.1936    6.9412 C   0  0  0  0  0  0
   -3.9523  -44.2831    6.4818 C   0  0  0  0  0  0
   -0.4533  -53.0337    6.6857 H   0  0  0  0  0  0
   -2.8871  -52.7412    6.2200 H   0  0  0  0  0  0
   -3.7857  -50.5005    5.6925 H   0  0  0  0  0  0
   -2.2920  -48.5694    5.5942 H   0  0  0  0  0  0
   -0.5077  -47.2833    4.8346 H   0  0  0  0  0  0
    1.1173  -46.8110    5.2046 H   0  0  0  0  0  0
    0.7217  -46.6183    7.5379 H   0  0  0  0  0  0
   -0.7234  -47.5415    7.5041 H   0  0  0  0  0  0
   -0.0874  -44.6321    6.6369 H   0  0  0  0  0  0
   -0.9389  -45.2173    8.0151 H   0  0  0  0  0  0
   -3.6453  -43.7115    5.6245 H   0  0  0  0  0  0
    1.7525  -50.8931    6.6326 N   0  0  0  0  0  0
    2.5843  -51.3912    6.9350 H   0  0  0  0  0  0
   -5.9824  -43.6029    6.3880 H   0  0  0  0  0  0
   -6.6514  -44.7406    8.4904 H   0  0  0  0  0  0
   -5.0535  -46.2924    9.6183 H   0  0  0  0  0  0
   -1.1857  -46.4505    8.8022 F   0  0  0  0  0  0
   -2.4539  -46.8324    8.9352 C   0  0  0  0  0  0
   -2.7420  -46.9149   10.2435 F   0  0  0  0  0  0
   -2.5525  -48.0448    8.3838 F   0  0  0  0  0  0
  1  2  2  0  0  0
  2  3  1  0  0  0
  2  4  1  0  0  0
  4 11  2  0  0  0
  4 33  1  0  0  0
  5  6  1  0  0  0
  5 10  2  0  0  0
  5 33  1  0  0  0
  6  7  2  0  0  0
  6 22  1  0  0  0
  7  8  1  0  0  0
  7 23  1  0  0  0
  8  9  2  0  0  0
  8 24  1  0  0  0
  9 10  1  0  0  0
  9 25  1  0  0  0
 10 11  1  0  0  0
 11 12  1  0  0  0
 12 26  1  0  0  0
 12 27  1  0  0  0
 12 13  1  0  0  0
 13 14  1  0  0  0
 13 28  1  0  0  0
 13 29  1  0  0  0
 14 15  1  0  0  0
 14 30  1  0  0  0
 14 31  1  0  0  0
 15 16  1  0  0  0
 16 17  1  0  0  0
 16 21  2  0  0  0
 17 18  2  0  0  0
 17 39  1  0  0  0
 18 19  1  0  0  0
 18 37  1  0  0  0
 19 20  2  0  0  0
 19 36  1  0  0  0
 20 21  1  0  0  0
 20 35  1  0  0  0
 21 32  1  0  0  0
 33 34  1  0  0  0
 38 39  1  0  0  0
 39 40  1  0  0  0
 39 41  1  0  0  0
M  CHG  1   3  -1
M  END
> <s_m_entry_id>
181

> <s_m_entry_name>
MCL1_29.1

> <r_m_Molecular_weight>
362.3315

> <s_m_Source_Path>
C:\Users\yujiethinkpad\Desktop\05A\MCL1\original

> <s_m_Source_File>
MCL1_29.sdf

> <r_user_dG.exp>
-6.93940556519089

> <s_fepmapper_entryid>
22

> <i_fepmapper_bias>
0

> <i_fepmapper_affinity>
1

> <r_fepmapper_exp_dG>
-6.93940556519

> <i_fepmapper_unit>
1

> <i_m_Source_File_Index>
1

> <s_m_job_name>
align_ligands_1

> <s_i_glide_gridfile>
glide-grid_MCL1

> <i_i_glide_lignum>
13

> <i_i_glide_rotatable_bonds>
7

> <r_i_docking_score>
-7.98506900107216

> <r_i_glide_ligand_efficiency>
-0.307118038502775

> <r_i_glide_ligand_efficiency_sa>
-0.909835980613344

> <r_i_glide_ligand_efficiency_ln>
-1.87526725375334

> <r_i_glide_gscore>
-7.98506900107216

> <r_i_glide_lipo>
-4.38974821912384

> <r_i_glide_hbond>
-0.2

> <r_i_glide_metal>
0

> <r_i_glide_rewards>
-2.6392049900863

> <r_i_glide_evdw>
-23.8291969299316

> <r_i_glide_ecoul>
-1.92215692996979

> <r_i_glide_erotb>
0.731300272525245

> <r_i_glide_esite>
-0.00763267839521502

> <r_i_glide_emodel>
-33.767681567035

> <r_i_glide_energy>
-25.7513538599014

> <r_i_glide_einternal>
2.14749884605408

> <i_i_glide_confnum>
33

> <i_i_glide_posenum>
168

> <r_i_glide_eff_state_penalty>
0

> <r_glide_shape_similarity>
0.891965508460999

> <i_phase_Input_Structure_Number>
29

> <i_phase_Structure_Number>
29

> <r_phase_Similarity_to_Reference>
0.866930126850329

> <i_phase_Reference_Structure>
1

> <s_phase_Alignment_Method>
snapped core

> <s_phase_Alignment_Reason>


> <s_phase_Core_SMARTS>
a1aaaaa1AAAAa(aa2)a(a23)aaaa3

> <s_f3d_frozen_atoms>
17 18 19 20 21 16 15 14 13 12 11 4 33 10 5 9 8 7 6 37 36 35 32 30 31 28 29 26 27 34 25 24 23 22

> <s_m_subgroup_title>
align_ligands_1->glide-dock_SP_redock_4245_lib1

> <s_m_subgroupid>
align_ligands_1->glide-dock_SP_redock_4245_lib11

> <b_m_subgroup_collapsed>
0

$$$$
