33
                    3D
 Schrodinger Suite 2021-2.
 38 40  0  0  1  0            999 V2000
    3.0900  -47.2504    6.7747 O   0  0  0  0  0  0
    3.0863  -48.4855    6.5974 C   0  0  0  0  0  0
    4.1511  -49.1309    6.6518 O   0  5  0  0  0  0
    1.7953  -49.1810    6.3522 C   0  0  0  0  0  0
    0.0202  -50.9573    6.3447 C   0  0  0  0  0  0
   -0.8407  -52.0632    6.4168 C   0  0  0  0  0  0
   -2.2170  -51.8957    6.1858 C   0  0  0  0  0  0
   -2.7295  -50.6268    5.8842 C   0  0  0  0  0  0
   -1.8581  -49.5384    5.7909 C   0  0  0  0  0  0
   -0.4683  -49.6764    6.0068 C   0  0  0  0  0  0
    0.5734  -48.7000    5.9545 C   0  0  0  0  0  0
    0.2448  -47.3095    5.6230 C   0  0  0  0  0  0
   -0.1713  -46.7848    6.9543 C   0  0  0  0  0  0
   -0.7090  -45.4534    6.9809 C   0  0  0  0  0  0
   -1.9563  -45.4326    6.3519 O   0  0  0  0  0  0
   -3.0626  -45.1684    7.0920 C   0  0  0  0  0  0
   -3.4344  -45.8754    8.2484 C   0  0  0  0  0  0
   -4.7420  -45.7252    8.7536 C   0  0  0  0  0  0
   -5.6579  -44.8869    8.0913 C   0  0  0  0  0  0
   -5.2664  -44.1936    6.9412 C   0  0  0  0  0  0
   -3.9523  -44.2831    6.4818 C   0  0  0  0  0  0
   -0.4521  -53.0372    6.6733 H   0  0  0  0  0  0
   -2.8872  -52.7408    6.2521 H   0  0  0  0  0  0
   -3.7864  -50.4989    5.6978 H   0  0  0  0  0  0
   -2.2562  -48.5611    5.5590 H   0  0  0  0  0  0
   -0.4979  -47.2758    4.8250 H   0  0  0  0  0  0
    1.1274  -46.8294    5.1976 H   0  0  0  0  0  0
    0.6841  -46.8005    7.6269 H   0  0  0  0  0  0
   -0.9122  -47.4409    7.4080 H   0  0  0  0  0  0
   -0.0028  -44.7700    6.5041 H   0  0  0  0  0  0
   -0.8620  -45.1508    8.0120 H   0  0  0  0  0  0
   -2.7658  -46.5666    8.7387 H   0  0  0  0  0  0
   -3.6359  -43.7143    5.6187 H   0  0  0  0  0  0
    1.7525  -50.8931    6.6326 N   0  0  0  0  0  0
    2.5893  -51.3898    6.8968 H   0  0  0  0  0  0
   -5.9743  -43.5972    6.3850 H   0  0  0  0  0  0
   -7.2744  -44.6961    8.6464 Cl  0  0  0  0  0  0
   -5.0491  -46.2635    9.6385 H   0  0  0  0  0  0
  1  2  2  0  0  0
  2  3  1  0  0  0
  2  4  1  0  0  0
  4 11  2  0  0  0
  4 34  1  0  0  0
  5  6  1  0  0  0
  5 10  2  0  0  0
  5 34  1  0  0  0
  6  7  2  0  0  0
  6 22  1  0  0  0
  7  8  1  0  0  0
  7 23  1  0  0  0
  8  9  2  0  0  0
  8 24  1  0  0  0
  9 10  1  0  0  0
  9 25  1  0  0  0
 10 11  1  0  0  0
 11 12  1  0  0  0
 12 26  1  0  0  0
 12 27  1  0  0  0
 12 13  1  0  0  0
 13 14  1  0  0  0
 13 28  1  0  0  0
 13 29  1  0  0  0
 14 15  1  0  0  0
 14 30  1  0  0  0
 14 31  1  0  0  0
 15 16  1  0  0  0
 16 17  1  0  0  0
 16 21  2  0  0  0
 17 18  2  0  0  0
 17 32  1  0  0  0
 18 19  1  0  0  0
 18 38  1  0  0  0
 19 20  2  0  0  0
 19 37  1  0  0  0
 20 21  1  0  0  0
 20 36  1  0  0  0
 21 33  1  0  0  0
 34 35  1  0  0  0
M  CHG  1   3  -1
M  END
> <s_m_entry_id>
191

> <s_m_entry_name>
MCL1_33.1

> <r_m_Molecular_weight>
328.77815

> <s_m_Source_Path>
C:\Users\yujiethinkpad\Desktop\05A\MCL1\original

> <s_m_Source_File>
MCL1_33.sdf

> <r_user_dG.exp>
-6.8752436973459

> <s_fepmapper_entryid>
4

> <i_fepmapper_bias>
0

> <i_fepmapper_affinity>
1

> <r_fepmapper_exp_dG>
-6.87524369735

> <i_fepmapper_unit>
1

> <i_m_Source_File_Index>
1

> <s_m_job_name>
align_ligands_1

> <s_i_glide_gridfile>
glide-grid_MCL1

> <i_i_glide_lignum>
17

> <i_i_glide_rotatable_bonds>
6

> <r_i_docking_score>
-7.20163094948747

> <r_i_glide_ligand_efficiency>
-0.313114389108151

> <r_i_glide_ligand_efficiency_sa>
-0.890455671170392

> <r_i_glide_ligand_efficiency_ln>
-1.74141966436518

> <r_i_glide_gscore>
-7.20163094948747

> <r_i_glide_lipo>
-4.28705017632647

> <r_i_glide_hbond>
-0.2

> <r_i_glide_metal>
0

> <r_i_glide_rewards>
-1.82737341262101

> <r_i_glide_evdw>
-23.641284942627

> <r_i_glide_ecoul>
-2.57944130897522

> <r_i_glide_erotb>
0.695202197979963

> <r_i_glide_esite>
-0.0134291150423215

> <r_i_glide_emodel>
-33.4819093647275

> <r_i_glide_energy>
-26.2207262516022

> <r_i_glide_einternal>
4.13595533370972

> <i_i_glide_confnum>
34

> <i_i_glide_posenum>
66

> <r_i_glide_eff_state_penalty>
0

> <r_glide_shape_similarity>
0.899364650249481

> <i_phase_Input_Structure_Number>
39

> <i_phase_Structure_Number>
39

> <r_phase_Similarity_to_Reference>
0.882288917110966

> <i_phase_Reference_Structure>
1

> <s_phase_Alignment_Method>
snapped core

> <s_phase_Alignment_Reason>


> <s_phase_Core_SMARTS>
a1aaaaa1AAAAa(aa2)a(a23)aaaa3

> <s_f3d_frozen_atoms>
17 18 19 20 21 16 15 14 13 12 11 4 34 10 5 9 8 7 6 32 38 37 36 33 30 31 28 29 26 27 35 25 24 23 22

> <s_m_subgroup_title>
align_ligands_1->glide-dock_SP_redock_4245_lib1

> <s_m_subgroupid>
align_ligands_1->glide-dock_SP_redock_4245_lib11

> <b_m_subgroup_collapsed>
0

$$$$
