43
                    3D
 Schrodinger Suite 2021-2.
 44 47  0  0  1  0            999 V2000
    3.0900  -47.2504    6.7747 O   0  0  0  0  0  0
    3.0863  -48.4855    6.5974 C   0  0  0  0  0  0
    4.1511  -49.1309    6.6518 O   0  5  0  0  0  0
    1.7953  -49.1810    6.3522 C   0  0  0  0  0  0
    0.0202  -50.9573    6.3447 C   0  0  0  0  0  0
   -0.8407  -52.0632    6.4168 C   0  0  0  0  0  0
   -2.2170  -51.8957    6.1858 C   0  0  0  0  0  0
   -2.7295  -50.6268    5.8842 C   0  0  0  0  0  0
   -1.8581  -49.5384    5.7909 C   0  0  0  0  0  0
   -0.4683  -49.6764    6.0068 C   0  0  0  0  0  0
    0.5734  -48.7000    5.9545 C   0  0  0  0  0  0
    0.2448  -47.3095    5.6230 C   0  0  0  0  0  0
   -0.1713  -46.7848    6.9543 C   0  0  0  0  0  0
   -0.7090  -45.4534    6.9809 C   0  0  0  0  0  0
   -1.9563  -45.4326    6.3519 O   0  0  0  0  0  0
   -3.0626  -45.1684    7.0920 C   0  0  0  0  0  0
   -5.2664  -44.1936    6.9412 C   0  0  0  0  0  0
   -3.9523  -44.2831    6.4818 C   0  0  0  0  0  0
   -0.4548  -53.0435    6.6754 H   0  0  0  0  0  0
   -2.8812  -52.7446    6.2380 H   0  0  0  0  0  0
   -3.7805  -50.5148    5.6871 H   0  0  0  0  0  0
   -2.2534  -48.5653    5.5541 H   0  0  0  0  0  0
    1.1301  -46.8259    5.1973 H   0  0  0  0  0  0
   -0.5031  -47.2740    4.8354 H   0  0  0  0  0  0
   -0.9217  -47.4241    7.4284 H   0  0  0  0  0  0
    0.6858  -46.7947    7.6314 H   0  0  0  0  0  0
   -0.8957  -45.1178    8.0007 H   0  0  0  0  0  0
    0.0018  -44.7816    6.4973 H   0  0  0  0  0  0
   -3.6252  -43.6400    5.6821 H   0  0  0  0  0  0
   -3.4344  -45.8754    8.2484 C   0  0  0  0  0  0
   -6.0029  -43.6394    6.3956 H   0  0  0  0  0  0
   -4.7420  -45.7252    8.7536 C   0  0  0  0  0  0
   -5.6579  -44.8869    8.0913 C   0  0  0  0  0  0
   -6.9864  -44.7741    8.5508 C   0  0  0  0  0  0
   -7.3525  -45.4885    9.7019 C   0  0  0  0  0  0
   -6.4306  -46.2805   10.4304 C   0  0  0  0  0  0
   -5.0721  -46.4402    9.9114 C   0  0  0  0  0  0
   -7.7148  -44.1610    8.0420 H   0  0  0  0  0  0
   -8.3754  -45.3959   10.0352 H   0  0  0  0  0  0
   -6.6848  -46.7925   11.3381 H   0  0  0  0  0  0
   -4.3459  -47.0308   10.4397 H   0  0  0  0  0  0
   -2.7843  -46.5889    8.7285 H   0  0  0  0  0  0
    1.7525  -50.8931    6.6326 N   0  0  0  0  0  0
    2.5739  -51.4091    6.9248 H   0  0  0  0  0  0
  1  2  2  0  0  0
  2  3  1  0  0  0
  2  4  1  0  0  0
  4 11  2  0  0  0
  4 43  1  0  0  0
  5  6  1  0  0  0
  5 10  2  0  0  0
  5 43  1  0  0  0
  6  7  2  0  0  0
  6 19  1  0  0  0
  7  8  1  0  0  0
  7 20  1  0  0  0
  8  9  2  0  0  0
  8 21  1  0  0  0
  9 10  1  0  0  0
  9 22  1  0  0  0
 10 11  1  0  0  0
 11 12  1  0  0  0
 12 23  1  0  0  0
 12 24  1  0  0  0
 12 13  1  0  0  0
 13 14  1  0  0  0
 13 25  1  0  0  0
 13 26  1  0  0  0
 14 15  1  0  0  0
 14 27  1  0  0  0
 14 28  1  0  0  0
 15 16  1  0  0  0
 16 18  2  0  0  0
 16 30  1  0  0  0
 17 18  1  0  0  0
 17 31  1  0  0  0
 17 33  2  0  0  0
 18 29  1  0  0  0
 30 32  2  0  0  0
 30 42  1  0  0  0
 32 33  1  0  0  0
 32 37  1  0  0  0
 33 34  1  0  0  0
 34 35  2  0  0  0
 34 38  1  0  0  0
 35 36  1  0  0  0
 35 39  1  0  0  0
 36 37  2  0  0  0
 36 40  1  0  0  0
 37 41  1  0  0  0
 43 44  1  0  0  0
M  CHG  1   3  -1
M  END
> <s_m_entry_id>
169

> <s_m_entry_name>
MCL1_43.1

> <r_m_Molecular_weight>
344.39366

> <s_m_Source_Path>
C:\Users\yujiethinkpad\Desktop\05A\MCL1\original

> <s_m_Source_File>
MCL1_43.sdf

> <r_user_dG.exp>
-7.03469617128338

> <s_fepmapper_entryid>
43

> <i_fepmapper_bias>
0

> <i_fepmapper_affinity>
1

> <r_fepmapper_exp_dG>
-7.03469617128

> <i_fepmapper_unit>
1

> <i_m_Source_File_Index>
1

> <s_m_job_name>
align_ligands_1

> <s_i_glide_gridfile>
glide-grid_MCL1

> <i_i_glide_lignum>
27

> <i_i_glide_rotatable_bonds>
6

> <r_i_docking_score>
-8.37207202397699

> <r_i_glide_ligand_efficiency>
-0.322002770152961

> <r_i_glide_ligand_efficiency_sa>
-0.953931939558429

> <r_i_glide_ligand_efficiency_ln>
-1.96615364382205

> <r_i_glide_gscore>
-8.37207202397699

> <r_i_glide_lipo>
-5.1856411369109

> <r_i_glide_hbond>
-0.2

> <r_i_glide_metal>
0

> <r_i_glide_rewards>
-1.89937692984929

> <r_i_glide_evdw>
-25.3503913879395

> <r_i_glide_ecoul>
-2.97232675552368

> <r_i_glide_erotb>
0.640363311436548

> <r_i_glide_esite>
-0.0140486859278208

> <r_i_glide_emodel>
-32.7266197490886

> <r_i_glide_energy>
-28.3227181434631

> <r_i_glide_einternal>
4.07527017593384

> <i_i_glide_confnum>
47

> <i_i_glide_posenum>
386

> <r_i_glide_eff_state_penalty>
0

> <r_glide_shape_similarity>
0.880557835102081

> <i_phase_Input_Structure_Number>
17

> <i_phase_Structure_Number>
17

> <r_phase_Similarity_to_Reference>
0.862507848083797

> <i_phase_Reference_Structure>
1

> <s_phase_Alignment_Method>
snapped core

> <s_phase_Alignment_Reason>


> <s_phase_Core_SMARTS>
a1aaaaa1AAAAa(aa2)a(a23)aaaa3

> <s_f3d_frozen_atoms>
30 32 33 17 18 16 15 14 13 12 11 4 43 10 5 9 8 7 6 42 31 29 27 28 25 26 23 24 44 22 21 20 19

> <s_m_subgroup_title>
align_ligands_1->glide-dock_SP_redock_4245_lib1

> <s_m_subgroupid>
align_ligands_1->glide-dock_SP_redock_4245_lib11

> <b_m_subgroup_collapsed>
0

$$$$
