54
                    3D
 Schrodinger Suite 2021-2.
 44 47  0  0  1  0            999 V2000
    3.0900  -47.2504    6.7747 O   0  0  0  0  0  0
    3.0863  -48.4855    6.5974 C   0  0  0  0  0  0
    4.1511  -49.1309    6.6518 O   0  5  0  0  0  0
    1.7953  -49.1810    6.3522 C   0  0  0  0  0  0
    0.0202  -50.9573    6.3447 C   0  0  0  0  0  0
   -0.8407  -52.0632    6.4168 C   0  0  0  0  0  0
   -2.2170  -51.8957    6.1858 C   0  0  0  0  0  0
   -2.7295  -50.6268    5.8842 C   0  0  0  0  0  0
   -1.8581  -49.5384    5.7909 C   0  0  0  0  0  0
   -0.4683  -49.6764    6.0068 C   0  0  0  0  0  0
    0.5734  -48.7000    5.9545 C   0  0  0  0  0  0
    0.2448  -47.3095    5.6230 C   0  0  0  0  0  0
   -0.1713  -46.7848    6.9543 C   0  0  0  0  0  0
   -0.7090  -45.4534    6.9809 C   0  0  0  0  0  0
   -1.9563  -45.4326    6.3519 O   0  0  0  0  0  0
   -3.0626  -45.1684    7.0920 C   0  0  0  0  0  0
   -5.6579  -44.8869    8.0913 C   0  0  0  0  0  0
   -4.7420  -45.7252    8.7536 C   0  0  0  0  0  0
   -3.4344  -45.8754    8.2484 C   0  0  0  0  0  0
   -0.4672  -53.0041    6.7933 H   0  0  0  0  0  0
   -3.2984  -53.2073    6.4816 Cl  0  0  0  0  0  0
   -3.7969  -50.4742    5.8018 H   0  0  0  0  0  0
   -2.2519  -48.5425    5.6292 H   0  0  0  0  0  0
    1.1218  -46.8251    5.1990 H   0  0  0  0  0  0
   -0.5025  -47.2874    4.8309 H   0  0  0  0  0  0
   -0.9650  -47.4197    7.3418 H   0  0  0  0  0  0
    0.6302  -46.8928    7.6906 H   0  0  0  0  0  0
   -0.8287  -45.1952    8.0251 H   0  0  0  0  0  0
    0.0133  -44.7694    6.5290 H   0  0  0  0  0  0
   -2.7349  -46.5257    8.7447 H   0  0  0  0  0  0
   -5.2664  -44.1936    6.9412 C   0  0  0  0  0  0
   -3.9523  -44.2831    6.4818 C   0  0  0  0  0  0
   -3.5255  -43.4679    5.3914 C   0  0  0  0  0  0
   -4.4780  -42.7327    4.6505 C   0  0  0  0  0  0
   -5.8419  -42.7599    5.0231 C   0  0  0  0  0  0
   -6.2487  -43.5402    6.1618 C   0  0  0  0  0  0
   -2.5161  -43.5168    5.0202 H   0  0  0  0  0  0
   -4.1611  -42.1937    3.7703 H   0  0  0  0  0  0
   -6.5473  -42.1337    4.5004 H   0  0  0  0  0  0
   -7.2970  -43.6957    6.3588 H   0  0  0  0  0  0
   -5.0459  -46.2720    9.6286 H   0  0  0  0  0  0
   -6.6886  -44.8624    8.4143 H   0  0  0  0  0  0
    1.7525  -50.8931    6.6326 N   0  0  0  0  0  0
    2.5792  -51.3983    6.9399 H   0  0  0  0  0  0
  1  2  2  0  0  0
  2  3  1  0  0  0
  2  4  1  0  0  0
  4 11  2  0  0  0
  4 43  1  0  0  0
  5  6  1  0  0  0
  5 10  2  0  0  0
  5 43  1  0  0  0
  6  7  2  0  0  0
  6 20  1  0  0  0
  7  8  1  0  0  0
  7 21  1  0  0  0
  8  9  2  0  0  0
  8 22  1  0  0  0
  9 10  1  0  0  0
  9 23  1  0  0  0
 10 11  1  0  0  0
 11 12  1  0  0  0
 12 24  1  0  0  0
 12 25  1  0  0  0
 12 13  1  0  0  0
 13 14  1  0  0  0
 13 26  1  0  0  0
 13 27  1  0  0  0
 14 15  1  0  0  0
 14 28  1  0  0  0
 14 29  1  0  0  0
 15 16  1  0  0  0
 16 19  2  0  0  0
 16 32  1  0  0  0
 17 18  2  0  0  0
 17 31  1  0  0  0
 17 42  1  0  0  0
 18 19  1  0  0  0
 18 41  1  0  0  0
 19 30  1  0  0  0
 31 32  2  0  0  0
 31 36  1  0  0  0
 32 33  1  0  0  0
 33 34  2  0  0  0
 33 37  1  0  0  0
 34 35  1  0  0  0
 34 38  1  0  0  0
 35 36  2  0  0  0
 35 39  1  0  0  0
 36 40  1  0  0  0
 43 44  1  0  0  0
M  CHG  1   3  -1
M  END
> <s_m_entry_id>
159

> <s_m_entry_name>
MCL1_54.1

> <r_m_Molecular_weight>
378.83869

> <s_m_Source_Path>
C:\Users\yujiethinkpad\Desktop\05A\MCL1\original

> <s_m_Source_File>
MCL1_54.sdf

> <r_user_dG.exp>
-9.77997627425646

> <s_fepmapper_entryid>
19

> <i_fepmapper_bias>
0

> <i_fepmapper_affinity>
1

> <r_fepmapper_exp_dG>
-9.77997627426

> <i_fepmapper_unit>
1

> <i_m_Source_File_Index>
1

> <s_m_job_name>
align_ligands_1

> <s_i_glide_gridfile>
glide-grid_MCL1

> <i_i_glide_lignum>
38

> <i_i_glide_rotatable_bonds>
6

> <r_i_docking_score>
-8.85144412594921

> <r_i_glide_ligand_efficiency>
-0.327831263924045

> <r_i_glide_ligand_efficiency_sa>
-0.983493790691657

> <r_i_glide_ligand_efficiency_ln>
-2.06047026505971

> <r_i_glide_gscore>
-8.85144412594921

> <r_i_glide_lipo>
-5.44949552498527

> <r_i_glide_hbond>
-0.2

> <r_i_glide_metal>
0

> <r_i_glide_rewards>
-1.72617286363636

> <r_i_glide_evdw>
-31.6936550140381

> <r_i_glide_ecoul>
-2.7027108669281

> <r_i_glide_erotb>
0.540262106106263

> <r_i_glide_esite>
-0.0259484626927239

> <r_i_glide_emodel>
-39.6882644496444

> <r_i_glide_energy>
-34.3963658809662

> <r_i_glide_einternal>
5.5406346321106

> <i_i_glide_confnum>
70

> <i_i_glide_posenum>
54

> <r_i_glide_eff_state_penalty>
0

> <r_glide_shape_similarity>
0.853346109390259

> <i_phase_Input_Structure_Number>
7

> <i_phase_Structure_Number>
7

> <r_phase_Similarity_to_Reference>
0.839489051288444

> <i_phase_Reference_Structure>
1

> <s_phase_Alignment_Method>
snapped core

> <s_phase_Alignment_Reason>


> <s_phase_Core_SMARTS>
a1aaaaa1AAAAa(aa2)a(a23)aaaa3

> <s_f3d_frozen_atoms>
19 18 17 31 32 16 15 14 13 12 11 4 43 10 5 9 8 7 6 30 41 42 28 29 26 27 24 25 44 23 22 21 20

> <s_m_subgroup_title>
align_ligands_1->glide-dock_SP_redock_4245_lib1

> <s_m_subgroupid>
align_ligands_1->glide-dock_SP_redock_4245_lib11

> <b_m_subgroup_collapsed>
0

$$$$
