65
                    3D
 Schrodinger Suite 2021-2.
 43 45  0  0  1  0            999 V2000
    3.0900  -47.2504    6.7747 O   0  0  0  0  0  0
    3.0863  -48.4855    6.5974 C   0  0  0  0  0  0
    4.1511  -49.1309    6.6518 O   0  5  0  0  0  0
    1.7953  -49.1810    6.3522 C   0  0  0  0  0  0
    1.7525  -50.8931    6.6326 S   0  0  0  0  0  0
    0.0202  -50.9573    6.3447 C   0  0  0  0  0  0
   -0.8407  -52.0632    6.4168 C   0  0  0  0  0  0
   -2.2170  -51.8957    6.1858 C   0  0  0  0  0  0
   -2.7295  -50.6268    5.8842 C   0  0  0  0  0  0
   -1.8581  -49.5384    5.7909 C   0  0  0  0  0  0
   -0.4683  -49.6764    6.0068 C   0  0  0  0  0  0
    0.5734  -48.7000    5.9545 C   0  0  0  0  0  0
    0.2448  -47.3095    5.6230 C   0  0  0  0  0  0
   -0.1713  -46.7848    6.9543 C   0  0  0  0  0  0
   -0.7090  -45.4534    6.9809 C   0  0  0  0  0  0
   -1.9563  -45.4326    6.3519 O   0  0  0  0  0  0
   -3.0626  -45.1684    7.0920 C   0  0  0  0  0  0
   -3.9523  -44.2831    6.4818 C   0  0  0  0  0  0
   -5.2664  -44.1936    6.9412 C   0  0  0  0  0  0
   -6.2552  -43.4525    6.0702 C   0  0  0  0  0  0
   -5.6579  -44.8869    8.0913 C   0  0  0  0  0  0
   -7.2744  -44.6961    8.6464 Cl  0  0  0  0  0  0
   -4.7420  -45.7252    8.7536 C   0  0  0  0  0  0
   -5.1804  -46.4948    9.9657 C   0  0  0  0  0  0
   -3.4344  -45.8754    8.2484 C   0  0  0  0  0  0
   -0.2256  -53.6328    6.8177 Cl  0  0  0  0  0  0
   -2.8789  -52.7412    6.2541 H   0  0  0  0  0  0
   -3.7918  -50.4940    5.7085 H   0  0  0  0  0  0
   -2.2648  -48.5783    5.5525 H   0  0  0  0  0  0
   -0.5203  -47.2744    4.8329 H   0  0  0  0  0  0
    1.1020  -46.8133    5.1712 H   0  0  0  0  0  0
    0.6696  -46.7997    7.6408 H   0  0  0  0  0  0
   -0.9288  -47.4250    7.4133 H   0  0  0  0  0  0
   -0.0284  -44.7404    6.5089 H   0  0  0  0  0  0
   -0.9177  -45.1407    8.0100 H   0  0  0  0  0  0
   -3.6088  -43.7163    5.6301 H   0  0  0  0  0  0
   -5.9628  -43.5320    5.0223 H   0  0  0  0  0  0
   -6.3131  -42.3938    6.2986 H   0  0  0  0  0  0
   -7.2584  -43.8734    6.1342 H   0  0  0  0  0  0
   -4.3741  -47.1282   10.3360 H   0  0  0  0  0  0
   -5.4774  -45.8080   10.7581 H   0  0  0  0  0  0
   -6.0276  -47.1355    9.7269 H   0  0  0  0  0  0
   -2.7451  -46.5698    8.6936 H   0  0  0  0  0  0
  1  2  2  0  0  0
  2  3  1  0  0  0
  2  4  1  0  0  0
  4  5  1  0  0  0
  4 12  2  0  0  0
  5  6  1  0  0  0
  6  7  1  0  0  0
  6 11  2  0  0  0
  7  8  2  0  0  0
  7 26  1  0  0  0
  8  9  1  0  0  0
  8 27  1  0  0  0
  9 10  2  0  0  0
  9 28  1  0  0  0
 10 11  1  0  0  0
 10 29  1  0  0  0
 11 12  1  0  0  0
 12 13  1  0  0  0
 13 30  1  0  0  0
 13 31  1  0  0  0
 13 14  1  0  0  0
 14 15  1  0  0  0
 14 32  1  0  0  0
 14 33  1  0  0  0
 15 16  1  0  0  0
 15 34  1  0  0  0
 15 35  1  0  0  0
 16 17  1  0  0  0
 17 18  1  0  0  0
 17 25  2  0  0  0
 18 19  2  0  0  0
 18 36  1  0  0  0
 19 20  1  0  0  0
 19 21  1  0  0  0
 20 37  1  0  0  0
 20 38  1  0  0  0
 20 39  1  0  0  0
 21 22  1  0  0  0
 21 23  2  0  0  0
 23 24  1  0  0  0
 23 25  1  0  0  0
 24 40  1  0  0  0
 24 41  1  0  0  0
 24 42  1  0  0  0
 25 43  1  0  0  0
M  CHG  1   3  -1
M  END
> <s_m_entry_id>
176

> <s_m_entry_name>
MCL1_65.1

> <r_m_Molecular_weight>
408.32669

> <s_m_Source_Path>
C:\Users\yujiethinkpad\Desktop\05A\MCL1\original

> <s_m_Source_File>
MCL1_65.sdf

> <r_user_dG.exp>
-8.40733622276992

> <s_fepmapper_entryid>
29

> <i_fepmapper_bias>
0

> <i_fepmapper_affinity>
1

> <r_fepmapper_exp_dG>
-8.40733622277

> <i_fepmapper_unit>
1

> <i_m_Source_File_Index>
1

> <s_m_job_name>
align_ligands_1

> <s_i_glide_gridfile>
glide-grid_MCL1

> <i_i_glide_lignum>
5

> <i_i_glide_rotatable_bonds>
6

> <r_i_docking_score>
-8.11154348977669

> <r_i_glide_ligand_efficiency>
-0.311982441914488

> <r_i_glide_ligand_efficiency_sa>
-0.924246756580041

> <r_i_glide_ligand_efficiency_ln>
-1.90496937242896

> <r_i_glide_gscore>
-8.11154348977669

> <r_i_glide_lipo>
-5.00943536142999

> <r_i_glide_hbond>
-0.229908058056408

> <r_i_glide_metal>
0

> <r_i_glide_rewards>
-1.46185766163687

> <r_i_glide_evdw>
-31.2912158966064

> <r_i_glide_ecoul>
-2.68096590042114

> <r_i_glide_erotb>
0.590202387595814

> <r_i_glide_esite>
-0.0338391163557375

> <r_i_glide_emodel>
-49.2611481733802

> <r_i_glide_energy>
-33.9721817970276

> <r_i_glide_einternal>
4.02322387695313

> <i_i_glide_confnum>
247

> <i_i_glide_posenum>
310

> <r_i_glide_eff_state_penalty>
0

> <r_glide_shape_similarity>
0.92381352186203

> <i_phase_Input_Structure_Number>
24

> <i_phase_Structure_Number>
24

> <r_phase_Similarity_to_Reference>
0.978504885160394

> <i_phase_Reference_Structure>
1

> <s_phase_Alignment_Method>
snapped core

> <s_phase_Alignment_Reason>


> <s_phase_Core_SMARTS>
a1aaaaa1AAAAa(aa2)a(a23)aaaa3

> <s_f3d_frozen_atoms>
25 23 21 19 18 17 16 15 14 13 12 4 5 11 6 10 9 8 7 43 22 36 34 35 32 33 30 31 29 28 27 26

> <s_m_subgroup_title>
align_ligands_1->glide-dock_SP_redock_4245_lib1

> <s_m_subgroupid>
align_ligands_1->glide-dock_SP_redock_4245_lib11

> <b_m_subgroup_collapsed>
0

$$$$
