@<TRIPOS>MOLECULE
jmc_27
36   38    1
SMALL
USER_CHARGES


@<TRIPOS>ATOM
      1 C1         -1.9612   21.5502  -27.3300 C.ar      1 UNK         0.0000 
      2 C2         -1.2942   22.4120  -28.1957 C.ar      1 UNK         0.0000 
      3 C3         -1.9550   22.9520  -29.2938 C.ar      1 UNK         0.0000 
      4 C4         -3.2998   22.6223  -29.5426 C.ar      1 UNK         0.0000 
      5 C5         -3.9689   21.7588  -28.6534 C.ar      1 UNK         0.0000 
      6 C6         -3.2917   21.2292  -27.5624 C.ar      1 UNK         0.0000 
      7 Cl7        -5.6403   21.3533  -28.9190 Cl        1 UNK         0.0000 
      8 C8         -4.0401   23.1522  -30.7110 C.2       1 UNK         0.0000 
      9 O9         -4.2265   22.4198  -31.6685 O.2       1 UNK         0.0000 
     10 N10        -4.5133   24.4119  -30.6476 N.am      1 UNK         0.0000 
     11 C11        -5.2869   25.1112  -31.5800 C.ar      1 UNK         0.0000 
     12 C12        -5.9620   24.5479  -32.6807 C.ar      1 UNK         0.0000 
     13 C13        -6.7806   25.3609  -33.4589 C.ar      1 UNK         0.0000 
     14 N14        -6.9234   26.6542  -33.1828 N.ar      1 UNK         0.0000 
     15 C15        -6.2984   27.2317  -32.1577 C.ar      1 UNK         0.0000 
     16 C16        -5.5070   26.4571  -31.3066 C.ar      1 UNK         0.0000 
     17 N17        -6.5391   28.5828  -31.8838 N.am      1 UNK         0.0000 
     18 C18        -5.7134   29.4445  -31.2331 C.2       1 UNK         0.0000 
     19 O19        -4.6156   29.1218  -30.8098 O.2       1 UNK         0.0000 
     20 C20        -6.2319   30.8471  -31.0310 C.3       1 UNK         0.0000 
     21 C21        -5.5787   31.7462  -29.9763 C.3       1 UNK         0.0000 
     22 C22        -5.3636   32.0236  -31.4653 C.3       1 UNK         0.0000 
     23 Cl23       -3.7545   31.6367  -32.1604 Cl        1 UNK         0.0000 
     24 Cl24       -1.1124   24.0506  -30.3318 Cl        1 UNK         0.0000 
     25 H25        -7.3054   30.9413  -31.1624 H         1 UNK         0.0000 
     26 H26        -5.8627   32.8962  -31.8829 H         1 UNK         0.0000 
     27 H27        -1.4436   21.1321  -26.4786 H         1 UNK         0.0000 
     28 H28        -0.2591   22.6635  -28.0157 H         1 UNK         0.0000 
     29 H29        -3.8111   20.5610  -26.8909 H         1 UNK         0.0000 
     30 H30        -4.3168   24.9848  -29.8393 H         1 UNK         0.0000 
     31 H31        -5.8400   23.4993  -32.9094 H         1 UNK         0.0000 
     32 H32        -7.3119   24.9439  -34.3018 H         1 UNK         0.0000 
     33 H33        -5.0645   26.9093  -30.4313 H         1 UNK         0.0000 
     34 H34        -7.4045   29.0126  -32.1802 H         1 UNK         0.0000 
     35 H35        -6.3523   32.2035  -29.3584 H         1 UNK         0.0000 
     36 H36        -4.9174   31.1488  -29.3474 H         1 UNK         0.0000 
@<TRIPOS>BOND
     1    1    2 ar   
     2    1    6 ar   
     3    1   27 1    
     4    2    3 ar   
     5    2   28 1    
     6    3    4 ar   
     7    3   24 1    
     8    4    5 ar   
     9    4    8 1    
    10    5    6 ar   
    11    5    7 1    
    12    6   29 1    
    13    8    9 2    
    14    8   10 am   BACKBONE|DICT|INTERRES
    15   10   11 1    
    16   10   30 1    
    17   11   12 ar   
    18   11   16 ar   
    19   12   13 ar   
    20   12   31 1    
    21   13   14 ar   
    22   13   32 1    
    23   14   15 ar   
    24   15   16 ar   
    25   15   17 1    
    26   16   33 1    
    27   17   18 am   BACKBONE|DICT|INTERRES
    28   17   34 1    
    29   18   19 2    
    30   18   20 1    
    31   20   21 1    
    32   20   22 1    
    33   20   25 1    
    34   21   22 1    
    35   21   35 1    
    36   21   36 1    
    37   22   23 1    
    38   22   26 1    
@<TRIPOS>SUBSTRUCTURE
     1 UNK         1 GROUP             0       ****    0 ROOT    
