@<TRIPOS>MOLECULE
CHEMBL1077204
66   69    1
SMALL
USER_CHARGES


@<TRIPOS>ATOM
      1 C1         17.1208   -7.6407   11.4944 C.3       1 UNK         0.0000 
      2 N2         15.6242   -7.2482   11.5606 N.4       1 UNK         0.0000 
      3 C3         15.1903   -7.0165   13.0246 C.3       1 UNK         0.0000 
      4 C4         15.2858   -6.0369   10.6535 C.3       1 UNK         0.0000 
      5 C5         15.3687   -6.4451    9.1688 C.3       1 UNK         0.0000 
      6 N6         14.6307   -5.5382    8.2833 N.am      1 UNK         0.0000 
      7 C7         15.2046   -4.6148    7.4955 C.2       1 UNK         0.0000 
      8 O8         16.4171   -4.3982    7.4780 O.2       1 UNK         0.0000 
      9 N9         14.3250   -3.9893    6.6937 N.am      1 UNK         0.0000 
     10 C10        14.7079   -3.1014    5.5887 C.3       1 UNK         0.0000 
     11 C11        14.9053   -3.7799    4.2057 C.3       1 UNK         0.0000 
     12 C12        15.0866   -5.3225    4.2389 C.3       1 UNK         0.0000 
     13 C13        15.2182   -5.9111    2.8299 C.3       1 UNK         0.0000 
     14 C14        14.1067   -5.4122    1.8780 C.3       1 UNK         0.0000 
     15 C15        12.7152   -6.0685    2.1272 C.3       1 UNK         0.0000 
     16 C16        12.7619   -7.5943    2.0392 C.ar      1 UNK         0.0000 
     17 C17        13.2585   -8.2080    0.8850 C.ar      1 UNK         0.0000 
     18 C18        13.3325   -9.5936    0.8010 C.ar      1 UNK         0.0000 
     19 C19        12.9111  -10.3707    1.8760 C.ar      1 UNK         0.0000 
     20 C20        12.4042   -9.7694    3.0248 C.ar      1 UNK         0.0000 
     21 C21        12.3240   -8.3811    3.1077 C.ar      1 UNK         0.0000 
     22 N22        11.7146   -5.5161    1.2136 N.pl3     1 UNK         0.0000 
     23 C23        11.7897   -4.1790    0.7828 C.ar      1 UNK         0.0000 
     24 C24        10.7767   -3.7118   -0.0511 C.ar      1 UNK         0.0000 
     25 C25        10.8134   -2.4087   -0.5370 C.ar      1 UNK         0.0000 
     26 C26        11.8546   -1.5518   -0.1784 C.ar      1 UNK         0.0000 
     27 C27        11.8961   -0.1327   -0.7370 C.3       1 UNK         0.0000 
     28 F28        12.5327   -0.1525   -1.9080 F         1 UNK         0.0000 
     29 F29        10.6622    0.3290   -0.9348 F         1 UNK         0.0000 
     30 F30        12.5354    0.7038    0.0806 F         1 UNK         0.0000 
     31 C31        12.8578   -2.0201    0.6775 C.ar      1 UNK         0.0000 
     32 C32        12.8617   -3.3430    1.1425 C.ar      1 UNK         0.0000 
     33 C33        14.0142   -3.8707    1.9829 C.3       1 UNK         0.0000 
     34 O34        13.8081   -3.4639    3.3402 O.3       1 UNK         0.0000 
     35 H35        17.7113   -6.7969   11.8567 H         1 UNK         0.0000 
     36 H36        17.3740   -7.8767   10.4603 H         1 UNK         0.0000 
     37 H37        17.2673   -8.5191   12.1246 H         1 UNK         0.0000 
     38 H38        15.8080   -6.2212   13.4462 H         1 UNK         0.0000 
     39 H39        15.3361   -7.9568   13.5567 H         1 UNK         0.0000 
     40 H40        14.1337   -6.7438   13.0292 H         1 UNK         0.0000 
     41 H41        14.2726   -5.7239   10.9114 H         1 UNK         0.0000 
     42 H42        15.9845   -5.2443   10.9348 H         1 UNK         0.0000 
     43 H43        16.4162   -6.5231    8.8640 H         1 UNK         0.0000 
     44 H44        14.9420   -7.4387    9.0363 H         1 UNK         0.0000 
     45 H45        13.6294   -5.6568    8.2395 H         1 UNK         0.0000 
     46 H46        13.3355   -4.1464    6.8108 H         1 UNK         0.0000 
     47 H47        13.9461   -2.3268    5.5168 H         1 UNK         0.0000 
     48 H48        15.6254   -2.5650    5.8439 H         1 UNK         0.0000 
     49 H49        15.8025   -3.3200    3.7819 H         1 UNK         0.0000 
     50 H50        15.9692   -5.5863    4.8210 H         1 UNK         0.0000 
     51 H51        14.2376   -5.7853    4.7452 H         1 UNK         0.0000 
     52 H52        16.1874   -5.6240    2.4207 H         1 UNK         0.0000 
     53 H53        15.2392   -6.9986    2.8928 H         1 UNK         0.0000 
     54 H54        14.4252   -5.6330    0.8574 H         1 UNK         0.0000 
     55 H55        12.3880   -5.8136    3.1374 H         1 UNK         0.0000 
     56 H56        13.5758   -7.6098    0.0450 H         1 UNK         0.0000 
     57 H57        13.7099  -10.0616   -0.0950 H         1 UNK         0.0000 
     58 H58        12.9588  -11.4481    1.8080 H         1 UNK         0.0000 
     59 H59        12.0706  -10.3802    3.8519 H         1 UNK         0.0000 
     60 H60        11.9249   -7.9218    4.0012 H         1 UNK         0.0000 
     61 H61        10.8052   -5.9499    1.3121 H         1 UNK         0.0000 
     62 H62         9.9603   -4.3577   -0.3382 H         1 UNK         0.0000 
     63 H63        10.0317   -2.0700   -1.2005 H         1 UNK         0.0000 
     64 H64        13.6772   -1.3689    0.9476 H         1 UNK         0.0000 
     65 H65        14.9369   -3.4306    1.5995 H         1 UNK         0.0000 
     66 H66        15.0791   -8.0358   11.2257 H         1 UNK         0.0000 
@<TRIPOS>BOND
     1    1    2 1    
     2    1   35 1    
     3    1   36 1    
     4    1   37 1    
     5    2    3 1    
     6    2    4 1    
     7    2   66 1    
     8    3   38 1    
     9    3   39 1    
    10    3   40 1    
    11    4    5 1    
    12    4   41 1    
    13    4   42 1    
    14    5    6 1    
    15    5   43 1    
    16    5   44 1    
    17    6    7 am   BACKBONE|DICT|INTERRES
    18    6   45 1    
    19    7    8 2    
    20    7    9 am   BACKBONE|DICT|INTERRES
    21    9   10 1    
    22    9   46 1    
    23   10   11 1    
    24   10   47 1    
    25   10   48 1    
    26   11   12 1    
    27   11   34 1    
    28   11   49 1    
    29   12   13 1    
    30   12   50 1    
    31   12   51 1    
    32   13   14 1    
    33   13   52 1    
    34   13   53 1    
    35   14   15 1    
    36   14   33 1    
    37   14   54 1    
    38   15   16 1    
    39   15   22 1    
    40   15   55 1    
    41   16   17 ar   
    42   16   21 ar   
    43   17   18 ar   
    44   17   56 1    
    45   18   19 ar   
    46   18   57 1    
    47   19   20 ar   
    48   19   58 1    
    49   20   21 ar   
    50   20   59 1    
    51   21   60 1    
    52   22   23 1    
    53   22   61 1    
    54   23   24 ar   
    55   23   32 ar   
    56   24   25 ar   
    57   24   62 1    
    58   25   26 ar   
    59   25   63 1    
    60   26   27 1    
    61   26   31 ar   
    62   27   28 1    
    63   27   29 1    
    64   27   30 1    
    65   31   32 ar   
    66   31   64 1    
    67   32   33 1    
    68   33   34 1    
    69   33   65 1    
@<TRIPOS>SUBSTRUCTURE
     1 UNK         1 GROUP             0       ****    0 ROOT    
