@<TRIPOS>MOLECULE
CHEMBL1084676
65   68    1
SMALL
USER_CHARGES


@<TRIPOS>ATOM
      1 C1         16.7713   -6.3756   12.0443 C.3       1 UNK         0.0000 
      2 N2         15.7514   -7.3133   11.3477 N.4       1 UNK         0.0000 
      3 C3         14.9672   -8.1032   12.4119 C.3       1 UNK         0.0000 
      4 C4         14.7574   -6.5424   10.4444 C.3       1 UNK         0.0000 
      5 C5         15.5368   -5.7840    9.4103 C.3       1 UNK         0.0000 
      6 O6         14.7381   -5.4520    8.2799 O.3       1 UNK         0.0000 
      7 C7         15.2652   -4.5977    7.4117 C.2       1 UNK         0.0000 
      8 O8         16.5030   -4.3780    7.3160 O.2       1 UNK         0.0000 
      9 N9         14.3099   -3.9820    6.6658 N.am      1 UNK         0.0000 
     10 C10        14.6677   -3.0872    5.5706 C.3       1 UNK         0.0000 
     11 C11        14.8962   -3.7746    4.1958 C.3       1 UNK         0.0000 
     12 C12        15.0805   -5.3187    4.2370 C.3       1 UNK         0.0000 
     13 C13        15.2182   -5.9065    2.8281 C.3       1 UNK         0.0000 
     14 C14        14.1002   -5.4125    1.8825 C.3       1 UNK         0.0000 
     15 C15        12.7104   -6.0683    2.1249 C.3       1 UNK         0.0000 
     16 C16        12.7572   -7.5912    2.0353 C.ar      1 UNK         0.0000 
     17 C17        12.3235   -8.3758    3.1056 C.ar      1 UNK         0.0000 
     18 C18        12.4000   -9.7638    3.0213 C.ar      1 UNK         0.0000 
     19 C19        12.9028  -10.3655    1.8703 C.ar      1 UNK         0.0000 
     20 C20        13.3226   -9.5904    0.7944 C.ar      1 UNK         0.0000 
     21 C21        13.2483   -8.2048    0.8778 C.ar      1 UNK         0.0000 
     22 N22        11.7296   -5.5214    1.1862 N.pl3     1 UNK         0.0000 
     23 C23        11.7939   -4.1799    0.7662 C.ar      1 UNK         0.0000 
     24 C24        10.7709   -3.7099   -0.0572 C.ar      1 UNK         0.0000 
     25 C25        10.8098   -2.4057   -0.5391 C.ar      1 UNK         0.0000 
     26 C26        11.8576   -1.5528   -0.1908 C.ar      1 UNK         0.0000 
     27 C27        11.9120   -0.1390   -0.7465 C.3       1 UNK         0.0000 
     28 F28        10.6726    0.3357   -0.9277 F         1 UNK         0.0000 
     29 F29        12.5628    0.6909    0.0665 F         1 UNK         0.0000 
     30 F30        12.5294   -0.1587   -1.9235 F         1 UNK         0.0000 
     31 C31        12.8610   -2.0226    0.6675 C.ar      1 UNK         0.0000 
     32 C32        12.8607   -3.3461    1.1326 C.ar      1 UNK         0.0000 
     33 C33        14.0132   -3.8683    1.9789 C.3       1 UNK         0.0000 
     34 O34        13.8046   -3.4607    3.3297 O.3       1 UNK         0.0000 
     35 H35        16.1866   -5.6689   12.6268 H         1 UNK         0.0000 
     36 H36        17.3506   -5.8769   11.2816 H         1 UNK         0.0000 
     37 H37        17.4106   -6.9779   12.6615 H         1 UNK         0.0000 
     38 H38        14.4470   -7.3620   12.9985 H         1 UNK         0.0000 
     39 H39        15.6920   -8.6413   13.0058 H         1 UNK         0.0000 
     40 H40        14.2920   -8.7629   11.8873 H         1 UNK         0.0000 
     41 H41        14.1090   -7.2702    9.9857 H         1 UNK         0.0000 
     42 H42        14.1835   -5.9006   11.1076 H         1 UNK         0.0000 
     43 H43        15.9172   -4.8470    9.8432 H         1 UNK         0.0000 
     44 H44        16.3874   -6.3647    9.0642 H         1 UNK         0.0000 
     45 H45        13.3335   -4.2030    6.8284 H         1 UNK         0.0000 
     46 H46        13.9024   -2.3150    5.4890 H         1 UNK         0.0000 
     47 H47        15.5773   -2.5399    5.8417 H         1 UNK         0.0000 
     48 H48        15.8009   -3.3231    3.7840 H         1 UNK         0.0000 
     49 H49        15.9617   -5.5860    4.8205 H         1 UNK         0.0000 
     50 H50        14.2325   -5.7873    4.7380 H         1 UNK         0.0000 
     51 H51        16.1842   -5.6070    2.4181 H         1 UNK         0.0000 
     52 H52        15.2471   -6.9941    2.8842 H         1 UNK         0.0000 
     53 H53        14.4141   -5.6391    0.8636 H         1 UNK         0.0000 
     54 H54        12.3709   -5.8147    3.1322 H         1 UNK         0.0000 
     55 H55        11.9359   -7.9140    4.0022 H         1 UNK         0.0000 
     56 H56        12.0685  -10.3734    3.8509 H         1 UNK         0.0000 
     57 H57        12.9503  -11.4423    1.8044 H         1 UNK         0.0000 
     58 H58        13.6920  -10.0586   -0.1044 H         1 UNK         0.0000 
     59 H59        13.5628   -7.6049    0.0369 H         1 UNK         0.0000 
     60 H60        10.9190   -6.0992    1.0077 H         1 UNK         0.0000 
     61 H61         9.9498   -4.3509   -0.3344 H         1 UNK         0.0000 
     62 H62        10.0227   -2.0600   -1.1958 H         1 UNK         0.0000 
     63 H63        13.6823   -1.3748    0.9343 H         1 UNK         0.0000 
     64 H64        14.9410   -3.4338    1.6028 H         1 UNK         0.0000 
     65 H65        16.2598   -7.9645   10.7739 H         1 UNK         0.0000 
@<TRIPOS>BOND
     1    1    2 1    
     2    1   35 1    
     3    1   36 1    
     4    1   37 1    
     5    2    3 1    
     6    2    4 1    
     7    2   65 1    
     8    3   38 1    
     9    3   39 1    
    10    3   40 1    
    11    4    5 1    
    12    4   41 1    
    13    4   42 1    
    14    5    6 1    
    15    5   43 1    
    16    5   44 1    
    17    6    7 1    
    18    7    8 2    
    19    7    9 am   BACKBONE|DICT|INTERRES
    20    9   10 1    
    21    9   45 1    
    22   10   11 1    
    23   10   46 1    
    24   10   47 1    
    25   11   12 1    
    26   11   34 1    
    27   11   48 1    
    28   12   13 1    
    29   12   49 1    
    30   12   50 1    
    31   13   14 1    
    32   13   51 1    
    33   13   52 1    
    34   14   15 1    
    35   14   33 1    
    36   14   53 1    
    37   15   16 1    
    38   15   22 1    
    39   15   54 1    
    40   16   17 ar   
    41   16   21 ar   
    42   17   18 ar   
    43   17   55 1    
    44   18   19 ar   
    45   18   56 1    
    46   19   20 ar   
    47   19   57 1    
    48   20   21 ar   
    49   20   58 1    
    50   21   59 1    
    51   22   23 1    
    52   22   60 1    
    53   23   24 ar   
    54   23   32 ar   
    55   24   25 ar   
    56   24   61 1    
    57   25   26 ar   
    58   25   62 1    
    59   26   27 1    
    60   26   31 ar   
    61   27   28 1    
    62   27   29 1    
    63   27   30 1    
    64   31   32 ar   
    65   31   63 1    
    66   32   33 1    
    67   33   34 1    
    68   33   64 1    
@<TRIPOS>SUBSTRUCTURE
     1 UNK         1 GROUP             0       ****    0 ROOT    
