@<TRIPOS>MOLECULE
CHEMBL1089056
51   54    1
SMALL
USER_CHARGES


@<TRIPOS>ATOM
      1 C1         12.8440    0.7919    0.0923 C.3       1 UNK         0.0000 
      2 C2         11.9510   -0.1740   -0.7292 C.3       1 UNK         0.0000 
      3 C3         10.5043    0.3281   -0.7907 C.3       1 UNK         0.0000 
      4 C4         12.4899   -0.2213   -2.1417 C.3       1 UNK         0.0000 
      5 C5         11.8886   -1.5912   -0.1659 C.ar      1 UNK         0.0000 
      6 C6         10.8674   -2.4721   -0.5416 C.ar      1 UNK         0.0000 
      7 C7         10.7974   -3.7635   -0.0404 C.ar      1 UNK         0.0000 
      8 C8         11.8031   -4.2332    0.7903 C.ar      1 UNK         0.0000 
      9 C9         12.8759   -3.4004    1.1456 C.ar      1 UNK         0.0000 
     10 C10        12.8695   -2.0850    0.7008 C.ar      1 UNK         0.0000 
     11 C11        14.0244   -3.9056    1.9931 C.3       1 UNK         0.0000 
     12 O12        13.7945   -3.4603    3.3342 O.3       1 UNK         0.0000 
     13 C13        14.8679   -3.7921    4.2158 C.3       1 UNK         0.0000 
     14 C14        15.0733   -5.3223    4.2605 C.3       1 UNK         0.0000 
     15 C15        15.2307   -5.9110    2.8490 C.3       1 UNK         0.0000 
     16 C16        14.1153   -5.4365    1.8937 C.3       1 UNK         0.0000 
     17 C17        12.7183   -6.0874    2.1403 C.3       1 UNK         0.0000 
     18 C18        12.7673   -7.6067    2.0472 C.ar      1 UNK         0.0000 
     19 C19        12.3297   -8.3923    3.1162 C.ar      1 UNK         0.0000 
     20 C20        12.4058   -9.7806    3.0303 C.ar      1 UNK         0.0000 
     21 C21        12.9252  -10.3773    1.8827 C.ar      1 UNK         0.0000 
     22 C22        13.3326   -9.5998    0.8058 C.ar      1 UNK         0.0000 
     23 C23        13.2534   -8.2136    0.8875 C.ar      1 UNK         0.0000 
     24 N24        11.7244   -5.5627    1.2182 N.pl3     1 UNK         0.0000 
     25 H25        12.9419    1.8039   -0.3195 H         1 UNK         0.0000 
     26 H26        13.8412    0.3849    0.0936 H         1 UNK         0.0000 
     27 H27        12.5513    0.8599    1.1381 H         1 UNK         0.0000 
     28 H28        10.1585    0.2508    0.1995 H         1 UNK         0.0000 
     29 H29         9.8173   -0.1840   -1.4404 H         1 UNK         0.0000 
     30 H30        10.2881    1.3288   -1.0813 H         1 UNK         0.0000 
     31 H31        12.7546    0.7362   -2.5815 H         1 UNK         0.0000 
     32 H32        11.6835   -0.6584   -2.7076 H         1 UNK         0.0000 
     33 H33        13.3441   -0.8652   -2.2592 H         1 UNK         0.0000 
     34 H34        10.0789   -2.1827   -1.2109 H         1 UNK         0.0000 
     35 H35         9.9625   -4.3964   -0.3281 H         1 UNK         0.0000 
     36 H36        13.7124   -1.5054    1.0214 H         1 UNK         0.0000 
     37 H37        14.9481   -3.4636    1.6062 H         1 UNK         0.0000 
     38 H38        15.7885   -3.3233    3.8717 H         1 UNK         0.0000 
     39 H39        14.6565   -3.4018    5.2084 H         1 UNK         0.0000 
     40 H40        15.9488   -5.5615    4.8654 H         1 UNK         0.0000 
     41 H41        14.2172   -5.7782    4.7576 H         1 UNK         0.0000 
     42 H42        16.1993   -5.6154    2.4368 H         1 UNK         0.0000 
     43 H43        15.2605   -6.9979    2.9035 H         1 UNK         0.0000 
     44 H44        14.4350   -5.6514    0.8706 H         1 UNK         0.0000 
     45 H45        12.3839   -5.8281    3.1467 H         1 UNK         0.0000 
     46 H46        11.9266   -7.9256    4.0075 H         1 UNK         0.0000 
     47 H47        12.0849  -10.3883    3.8589 H         1 UNK         0.0000 
     48 H48        12.9621  -11.4564    1.8116 H         1 UNK         0.0000 
     49 H49        13.7105  -10.0654   -0.0977 H         1 UNK         0.0000 
     50 H50        13.5752   -7.6146    0.0540 H         1 UNK         0.0000 
     51 H51        10.8173   -5.9953    1.3112 H         1 UNK         0.0000 
@<TRIPOS>BOND
     1    1    2 1    
     2    1   25 1    
     3    1   26 1    
     4    1   27 1    
     5    2    3 1    
     6    2    4 1    
     7    2    5 1    
     8    3   28 1    
     9    3   29 1    
    10    3   30 1    
    11    4   31 1    
    12    4   32 1    
    13    4   33 1    
    14    5    6 ar   
    15    5   10 ar   
    16    6    7 ar   
    17    6   34 1    
    18    7    8 ar   
    19    7   35 1    
    20    8    9 ar   
    21    8   24 1    
    22    9   10 ar   
    23    9   11 1    
    24   10   36 1    
    25   11   12 1    
    26   11   16 1    
    27   11   37 1    
    28   12   13 1    
    29   13   14 1    
    30   13   38 1    
    31   13   39 1    
    32   14   15 1    
    33   14   40 1    
    34   14   41 1    
    35   15   16 1    
    36   15   42 1    
    37   15   43 1    
    38   16   17 1    
    39   16   44 1    
    40   17   18 1    
    41   17   24 1    
    42   17   45 1    
    43   18   19 ar   
    44   18   23 ar   
    45   19   20 ar   
    46   19   46 1    
    47   20   21 ar   
    48   20   47 1    
    49   21   22 ar   
    50   21   48 1    
    51   22   23 ar   
    52   22   49 1    
    53   23   50 1    
    54   24   51 1    
@<TRIPOS>SUBSTRUCTURE
     1 UNK         1 GROUP             0       ****    0 ROOT    
