@<TRIPOS>MOLECULE
CHEMBL1086410
60   63    1
SMALL
USER_CHARGES


@<TRIPOS>ATOM
      1 C1         15.2901   -4.6437    7.5383 C.3       1 UNK         0.0000 
      2 N2         14.2345   -3.9601    6.6829 N.4       1 UNK         0.0000 
      3 C3         14.7221   -3.0583    5.5490 C.3       1 UNK         0.0000 
      4 C4         14.8999   -3.7840    4.1926 C.3       1 UNK         0.0000 
      5 C5         15.0700   -5.3255    4.2383 C.3       1 UNK         0.0000 
      6 C6         15.2153   -5.9091    2.8263 C.3       1 UNK         0.0000 
      7 C7         14.0983   -5.4050    1.8842 C.3       1 UNK         0.0000 
      8 C8         12.7057   -6.0670    2.1305 C.3       1 UNK         0.0000 
      9 C9         12.7531   -7.5892    2.0317 C.ar      1 UNK         0.0000 
     10 C10        12.3225   -8.3747    3.1029 C.ar      1 UNK         0.0000 
     11 C11        12.3958   -9.7629    3.0192 C.ar      1 UNK         0.0000 
     12 C12        12.8972  -10.3629    1.8676 C.ar      1 UNK         0.0000 
     13 C13        13.3187   -9.5874    0.7926 C.ar      1 UNK         0.0000 
     14 C14        13.2445   -8.2014    0.8739 C.ar      1 UNK         0.0000 
     15 N15        11.6991   -5.5133    1.2256 N.pl3     1 UNK         0.0000 
     16 C16        11.7858   -4.1845    0.7833 C.ar      1 UNK         0.0000 
     17 C17        10.7712   -3.7187   -0.0475 C.ar      1 UNK         0.0000 
     18 C18        10.8197   -2.4274   -0.5442 C.ar      1 UNK         0.0000 
     19 C19        11.8648   -1.5641   -0.1926 C.ar      1 UNK         0.0000 
     20 C20        11.9169   -0.1315   -0.7463 C.3       1 UNK         0.0000 
     21 C21        12.7557   -0.1019   -2.0369 C.3       1 UNK         0.0000 
     22 C22        12.5803    0.8318    0.2570 C.3       1 UNK         0.0000 
     23 C23        10.4805    0.3432   -1.0380 C.3       1 UNK         0.0000 
     24 C24        12.8556   -2.0349    0.6769 C.ar      1 UNK         0.0000 
     25 C25        12.8619   -3.3505    1.1396 C.ar      1 UNK         0.0000 
     26 C26        14.0087   -3.8650    1.9951 C.3       1 UNK         0.0000 
     27 O27        13.7947   -3.4627    3.3473 O.3       1 UNK         0.0000 
     28 H28        14.6735   -5.1814    8.2598 H         1 UNK         0.0000 
     29 H29        15.8828   -3.8437    7.9841 H         1 UNK         0.0000 
     30 H30        15.8509   -5.3019    6.8818 H         1 UNK         0.0000 
     31 H31        13.6389   -4.6718    6.2894 H         1 UNK         0.0000 
     32 H32        13.9254   -2.3118    5.5211 H         1 UNK         0.0000 
     33 H33        15.6389   -2.6096    5.9280 H         1 UNK         0.0000 
     34 H34        15.7954   -3.3483    3.7468 H         1 UNK         0.0000 
     35 H35        15.9375   -5.6020    4.8343 H         1 UNK         0.0000 
     36 H36        14.2035   -5.7885    4.7085 H         1 UNK         0.0000 
     37 H37        16.1861   -5.6234    2.4153 H         1 UNK         0.0000 
     38 H38        15.2297   -6.9971    2.8750 H         1 UNK         0.0000 
     39 H39        14.4101   -5.6090    0.8598 H         1 UNK         0.0000 
     40 H40        12.3692   -5.8348    3.1428 H         1 UNK         0.0000 
     41 H41        11.9399   -7.9122    4.0011 H         1 UNK         0.0000 
     42 H42        12.0683  -10.3730    3.8497 H         1 UNK         0.0000 
     43 H43        12.9497  -11.4400    1.8049 H         1 UNK         0.0000 
     44 H44        13.6958  -10.0580   -0.1024 H         1 UNK         0.0000 
     45 H45        13.5651   -7.6033    0.0339 H         1 UNK         0.0000 
     46 H46        10.7785   -5.9107    1.3696 H         1 UNK         0.0000 
     47 H47         9.9359   -4.3468   -0.3168 H         1 UNK         0.0000 
     48 H48        10.0178   -2.1019   -1.1900 H         1 UNK         0.0000 
     49 H49        12.9019    0.9045   -2.4236 H         1 UNK         0.0000 
     50 H50        12.2955   -0.6969   -2.8131 H         1 UNK         0.0000 
     51 H51        13.7493   -0.5034   -1.8678 H         1 UNK         0.0000 
     52 H52        13.6597    0.7317    0.2362 H         1 UNK         0.0000 
     53 H53        12.3141    0.5827    1.2765 H         1 UNK         0.0000 
     54 H54        12.3525    1.8791    0.0573 H         1 UNK         0.0000 
     55 H55        10.3454    1.4034   -1.0795 H         1 UNK         0.0000 
     56 H56         9.7702    0.0204   -0.3014 H         1 UNK         0.0000 
     57 H57        10.1013   -0.0683   -1.9475 H         1 UNK         0.0000 
     58 H58        13.6541   -1.3803    0.9921 H         1 UNK         0.0000 
     59 H59        14.9440   -3.4101    1.6563 H         1 UNK         0.0000 
     60 H60        13.7216   -3.3684    7.3194 H         1 UNK         0.0000 
@<TRIPOS>BOND
     1    1    2 1    
     2    1   28 1    
     3    1   29 1    
     4    1   30 1    
     5    2    3 1    
     6    2   31 1    
     7    2   60 1    
     8    3    4 1    
     9    3   32 1    
    10    3   33 1    
    11    4    5 1    
    12    4   27 1    
    13    4   34 1    
    14    5    6 1    
    15    5   35 1    
    16    5   36 1    
    17    6    7 1    
    18    6   37 1    
    19    6   38 1    
    20    7    8 1    
    21    7   26 1    
    22    7   39 1    
    23    8    9 1    
    24    8   15 1    
    25    8   40 1    
    26    9   10 ar   
    27    9   14 ar   
    28   10   11 ar   
    29   10   41 1    
    30   11   12 ar   
    31   11   42 1    
    32   12   13 ar   
    33   12   43 1    
    34   13   14 ar   
    35   13   44 1    
    36   14   45 1    
    37   15   16 1    
    38   15   46 1    
    39   16   17 ar   
    40   16   25 ar   
    41   17   18 ar   
    42   17   47 1    
    43   18   19 ar   
    44   18   48 1    
    45   19   20 1    
    46   19   24 ar   
    47   20   21 1    
    48   20   22 1    
    49   20   23 1    
    50   21   49 1    
    51   21   50 1    
    52   21   51 1    
    53   22   52 1    
    54   22   53 1    
    55   22   54 1    
    56   23   55 1    
    57   23   56 1    
    58   23   57 1    
    59   24   25 ar   
    60   24   58 1    
    61   25   26 1    
    62   26   27 1    
    63   26   59 1    
@<TRIPOS>SUBSTRUCTURE
     1 UNK         1 GROUP             0       ****    0 ROOT    
