@<TRIPOS>MOLECULE
CHEMBL1085895
61   64    1
SMALL
USER_CHARGES


@<TRIPOS>ATOM
      1 O1         16.4467   -4.4109    7.4249 O.2       1 UNK         0.0000 
      2 C2         15.2351   -4.6139    7.4730 C.2       1 UNK         0.0000 
      3 N3         14.6650   -5.5529    8.2387 N.am      1 UNK         0.0000 
      4 C4         15.3869   -6.4361    9.1585 C.3       1 UNK         0.0000 
      5 C5         15.2668   -6.0328   10.6455 C.3       1 UNK         0.0000 
      6 C6         13.8226   -5.9803   11.1627 C.3       1 UNK         0.0000 
      7 O7         13.1566   -4.8684   10.5881 O.3       1 UNK         0.0000 
      8 N8         14.3343   -3.9820    6.7011 N.am      1 UNK         0.0000 
      9 C9         14.6936   -3.0974    5.5864 C.3       1 UNK         0.0000 
     10 C10        14.8991   -3.7794    4.2042 C.3       1 UNK         0.0000 
     11 C11        15.0796   -5.3216    4.2396 C.3       1 UNK         0.0000 
     12 C12        15.2170   -5.9056    2.8282 C.3       1 UNK         0.0000 
     13 C13        14.0982   -5.4118    1.8834 C.3       1 UNK         0.0000 
     14 C14        12.7071   -6.0676    2.1263 C.3       1 UNK         0.0000 
     15 C15        12.7538   -7.5905    2.0348 C.ar      1 UNK         0.0000 
     16 C16        12.3222   -8.3753    3.1056 C.ar      1 UNK         0.0000 
     17 C17        12.3985   -9.7635    3.0200 C.ar      1 UNK         0.0000 
     18 C18        12.9019  -10.3648    1.8691 C.ar      1 UNK         0.0000 
     19 C19        13.3224   -9.5891    0.7939 C.ar      1 UNK         0.0000 
     20 C20        13.2458   -8.2037    0.8776 C.ar      1 UNK         0.0000 
     21 N21        11.7300   -5.5199    1.1852 N.pl3     1 UNK         0.0000 
     22 C22        11.7894   -4.1781    0.7704 C.ar      1 UNK         0.0000 
     23 C23        10.7703   -3.7089   -0.0567 C.ar      1 UNK         0.0000 
     24 C24        10.8105   -2.4059   -0.5418 C.ar      1 UNK         0.0000 
     25 C25        11.8590   -1.5551   -0.1897 C.ar      1 UNK         0.0000 
     26 C26        11.9086   -0.1381   -0.7474 C.3       1 UNK         0.0000 
     27 F27        10.6756    0.3312   -0.9261 F         1 UNK         0.0000 
     28 F28        12.5656    0.6893    0.0654 F         1 UNK         0.0000 
     29 F29        12.5316   -0.1600   -1.9259 F         1 UNK         0.0000 
     30 C30        12.8601   -2.0232    0.6679 C.ar      1 UNK         0.0000 
     31 C31        12.8600   -3.3430    1.1355 C.ar      1 UNK         0.0000 
     32 C32        14.0117   -3.8696    1.9810 C.3       1 UNK         0.0000 
     33 O33        13.8055   -3.4605    3.3355 O.3       1 UNK         0.0000 
     34 H34        13.6582   -5.5705    8.3023 H         1 UNK         0.0000 
     35 H35        14.9279   -7.4158    9.0362 H         1 UNK         0.0000 
     36 H36        16.4371   -6.5451    8.8797 H         1 UNK         0.0000 
     37 H37        15.8294   -6.7485   11.2505 H         1 UNK         0.0000 
     38 H38        15.7509   -5.0717   10.8267 H         1 UNK         0.0000 
     39 H39        13.3103   -6.8986   10.8617 H         1 UNK         0.0000 
     40 H40        13.8037   -5.9486   12.2545 H         1 UNK         0.0000 
     41 H41        12.3548   -4.6854   11.0876 H         1 UNK         0.0000 
     42 H42        13.3526   -4.1690    6.8347 H         1 UNK         0.0000 
     43 H43        13.9202   -2.3332    5.5075 H         1 UNK         0.0000 
     44 H44        15.5994   -2.5443    5.8485 H         1 UNK         0.0000 
     45 H45        15.8025   -3.3267    3.7880 H         1 UNK         0.0000 
     46 H46        15.9600   -5.5867    4.8260 H         1 UNK         0.0000 
     47 H47        14.2304   -5.7872    4.7430 H         1 UNK         0.0000 
     48 H48        16.1836   -5.6053    2.4186 H         1 UNK         0.0000 
     49 H49        15.2476   -6.9928    2.8841 H         1 UNK         0.0000 
     50 H50        14.4127   -5.6391    0.8639 H         1 UNK         0.0000 
     51 H51        12.3723   -5.8162    3.1365 H         1 UNK         0.0000 
     52 H52        11.9359   -7.9127    4.0028 H         1 UNK         0.0000 
     53 H53        12.0683  -10.3720    3.8500 H         1 UNK         0.0000 
     54 H54        12.9496  -11.4422    1.8040 H         1 UNK         0.0000 
     55 H55        13.6904  -10.0586   -0.1062 H         1 UNK         0.0000 
     56 H56        13.5615   -7.6046    0.0370 H         1 UNK         0.0000 
     57 H57        10.9273   -6.1033    0.9966 H         1 UNK         0.0000 
     58 H58         9.9481   -4.3512   -0.3337 H         1 UNK         0.0000 
     59 H59        10.0229   -2.0607   -1.1956 H         1 UNK         0.0000 
     60 H60        13.6834   -1.3760    0.9343 H         1 UNK         0.0000 
     61 H61        14.9403   -3.4348    1.6035 H         1 UNK         0.0000 
@<TRIPOS>BOND
     1    1    2 2    
     2    2    3 am   BACKBONE|DICT|INTERRES
     3    2    8 am   BACKBONE|DICT|INTERRES
     4    3    4 1    
     5    3   34 1    
     6    4    5 1    
     7    4   35 1    
     8    4   36 1    
     9    5    6 1    
    10    5   37 1    
    11    5   38 1    
    12    6    7 1    
    13    6   39 1    
    14    6   40 1    
    15    7   41 1    
    16    8    9 1    
    17    8   42 1    
    18    9   10 1    
    19    9   43 1    
    20    9   44 1    
    21   10   11 1    
    22   10   33 1    
    23   10   45 1    
    24   11   12 1    
    25   11   46 1    
    26   11   47 1    
    27   12   13 1    
    28   12   48 1    
    29   12   49 1    
    30   13   14 1    
    31   13   32 1    
    32   13   50 1    
    33   14   15 1    
    34   14   21 1    
    35   14   51 1    
    36   15   16 ar   
    37   15   20 ar   
    38   16   17 ar   
    39   16   52 1    
    40   17   18 ar   
    41   17   53 1    
    42   18   19 ar   
    43   18   54 1    
    44   19   20 ar   
    45   19   55 1    
    46   20   56 1    
    47   21   22 1    
    48   21   57 1    
    49   22   23 ar   
    50   22   31 ar   
    51   23   24 ar   
    52   23   58 1    
    53   24   25 ar   
    54   24   59 1    
    55   25   26 1    
    56   25   30 ar   
    57   26   27 1    
    58   26   28 1    
    59   26   29 1    
    60   30   31 ar   
    61   30   60 1    
    62   31   32 1    
    63   32   33 1    
    64   32   61 1    
@<TRIPOS>SUBSTRUCTURE
     1 UNK         1 GROUP             0       ****    0 ROOT    
