@<TRIPOS>MOLECULE
CHEMBL1083517
52   55    1
SMALL
USER_CHARGES


@<TRIPOS>ATOM
      1 C1         15.2945   -4.6456    7.5469 C.3       1 UNK         0.0000 
      2 N2         14.2188   -3.9772    6.6830 N.4       1 UNK         0.0000 
      3 C3         14.7170   -3.0548    5.5563 C.3       1 UNK         0.0000 
      4 C4         14.9062   -3.7815    4.1963 C.3       1 UNK         0.0000 
      5 C5         15.0762   -5.3257    4.2405 C.3       1 UNK         0.0000 
      6 C6         15.2119   -5.9103    2.8279 C.3       1 UNK         0.0000 
      7 C7         14.0958   -5.4085    1.8831 C.3       1 UNK         0.0000 
      8 C8         12.7022   -6.0556    2.1309 C.3       1 UNK         0.0000 
      9 C9         12.7494   -7.5720    2.0320 C.ar      1 UNK         0.0000 
     10 C10        12.3122   -8.3407    3.1105 C.ar      1 UNK         0.0000 
     11 C11        12.3858   -9.7169    3.0355 C.ar      1 UNK         0.0000 
     12 C12        12.8953  -10.3167    1.9053 C.ar      1 UNK         0.0000 
     13 O13        12.9346  -11.6580    1.9834 O.3       1 UNK         0.0000 
     14 C14        13.3254   -9.5761    0.8020 C.ar      1 UNK         0.0000 
     15 C15        13.2462   -8.1884    0.8749 C.ar      1 UNK         0.0000 
     16 N16        11.6994   -5.5075    1.2212 N.pl3     1 UNK         0.0000 
     17 C17        11.7844   -4.1764    0.7815 C.ar      1 UNK         0.0000 
     18 C18        10.7699   -3.7067   -0.0503 C.ar      1 UNK         0.0000 
     19 C19        10.8150   -2.4088   -0.5447 C.ar      1 UNK         0.0000 
     20 C20        11.8616   -1.5558   -0.1890 C.ar      1 UNK         0.0000 
     21 C21        11.9106   -0.1398   -0.7467 C.3       1 UNK         0.0000 
     22 F22        10.6754    0.3322   -0.9250 F         1 UNK         0.0000 
     23 F23        12.5663    0.6893    0.0656 F         1 UNK         0.0000 
     24 F24        12.5325   -0.1603   -1.9255 F         1 UNK         0.0000 
     25 C25        12.8587   -2.0233    0.6738 C.ar      1 UNK         0.0000 
     26 C26        12.8627   -3.3435    1.1365 C.ar      1 UNK         0.0000 
     27 C27        14.0125   -3.8687    1.9839 C.3       1 UNK         0.0000 
     28 O28        13.8063   -3.4625    3.3381 O.3       1 UNK         0.0000 
     29 H29        14.7131   -5.3408    8.1571 H         1 UNK         0.0000 
     30 H30        15.7717   -3.8634    8.1459 H         1 UNK         0.0000 
     31 H31        15.9993   -5.1648    6.8954 H         1 UNK         0.0000 
     32 H32        13.6481   -4.6984    6.2609 H         1 UNK         0.0000 
     33 H33        13.9150   -2.3146    5.4984 H         1 UNK         0.0000 
     34 H34        15.6272   -2.5637    5.9148 H         1 UNK         0.0000 
     35 H35        15.8145   -3.3482    3.7701 H         1 UNK         0.0000 
     36 H36        15.9685   -5.5977    4.8005 H         1 UNK         0.0000 
     37 H37        14.2301   -5.7976    4.7439 H         1 UNK         0.0000 
     38 H38        16.1813   -5.6195    2.4167 H         1 UNK         0.0000 
     39 H39        15.2366   -6.9982    2.8824 H         1 UNK         0.0000 
     40 H40        14.4092   -5.6329    0.8632 H         1 UNK         0.0000 
     41 H41        12.3643   -5.8188    3.1418 H         1 UNK         0.0000 
     42 H42        11.9255   -7.8983    4.0140 H         1 UNK         0.0000 
     43 H43        12.0629  -10.3482    3.8517 H         1 UNK         0.0000 
     44 H44        13.1991  -12.1433    1.1685 H         1 UNK         0.0000 
     45 H45        13.7047  -10.0489   -0.0940 H         1 UNK         0.0000 
     46 H46        13.5679   -7.5941    0.0318 H         1 UNK         0.0000 
     47 H47        10.7811   -5.9070    1.3745 H         1 UNK         0.0000 
     48 H48         9.9416   -4.3450   -0.3209 H         1 UNK         0.0000 
     49 H49        10.0299   -2.0650   -1.2027 H         1 UNK         0.0000 
     50 H50        13.6742   -1.3708    0.9526 H         1 UNK         0.0000 
     51 H51        14.9439   -3.4301    1.6181 H         1 UNK         0.0000 
     52 H52        13.6443   -3.4278    7.3100 H         1 UNK         0.0000 
@<TRIPOS>BOND
     1    1    2 1    
     2    1   29 1    
     3    1   30 1    
     4    1   31 1    
     5    2    3 1    
     6    2   32 1    
     7    2   52 1    
     8    3    4 1    
     9    3   33 1    
    10    3   34 1    
    11    4    5 1    
    12    4   28 1    
    13    4   35 1    
    14    5    6 1    
    15    5   36 1    
    16    5   37 1    
    17    6    7 1    
    18    6   38 1    
    19    6   39 1    
    20    7    8 1    
    21    7   27 1    
    22    7   40 1    
    23    8    9 1    
    24    8   16 1    
    25    8   41 1    
    26    9   10 ar   
    27    9   15 ar   
    28   10   11 ar   
    29   10   42 1    
    30   11   12 ar   
    31   11   43 1    
    32   12   13 1    
    33   12   14 ar   
    34   13   44 1    
    35   14   15 ar   
    36   14   45 1    
    37   15   46 1    
    38   16   17 1    
    39   16   47 1    
    40   17   18 ar   
    41   17   26 ar   
    42   18   19 ar   
    43   18   48 1    
    44   19   20 ar   
    45   19   49 1    
    46   20   21 1    
    47   20   25 ar   
    48   21   22 1    
    49   21   23 1    
    50   21   24 1    
    51   25   26 ar   
    52   25   50 1    
    53   26   27 1    
    54   27   28 1    
    55   27   51 1    
@<TRIPOS>SUBSTRUCTURE
     1 UNK         1 GROUP             0       ****    0 ROOT    
