@<TRIPOS>MOLECULE
CHEMBL1088740
42   45    1
SMALL
USER_CHARGES


@<TRIPOS>ATOM
      1 C1         14.8892   -3.7991    4.1929 C.3       1 UNK         0.0000 
      2 C2         15.0808   -5.3250    4.2402 C.3       1 UNK         0.0000 
      3 C3         15.2237   -5.9069    2.8274 C.3       1 UNK         0.0000 
      4 C4         14.1038   -5.4118    1.8796 C.3       1 UNK         0.0000 
      5 C5         12.7087   -6.0667    2.1153 C.3       1 UNK         0.0000 
      6 C6         12.7572   -7.5920    2.0339 C.ar      1 UNK         0.0000 
      7 C7         12.3194   -8.3758    3.1038 C.ar      1 UNK         0.0000 
      8 C8         12.3980   -9.7668    3.0196 C.ar      1 UNK         0.0000 
      9 C9         12.9045  -10.3679    1.8688 C.ar      1 UNK         0.0000 
     10 C10        13.3260   -9.5931    0.7968 C.ar      1 UNK         0.0000 
     11 C11        13.2504   -8.2090    0.8799 C.ar      1 UNK         0.0000 
     12 N12        11.7397   -5.5251    1.1637 N.pl3     1 UNK         0.0000 
     13 C13        11.7924   -4.1803    0.7520 C.ar      1 UNK         0.0000 
     14 C14        10.7746   -3.7011   -0.0615 C.ar      1 UNK         0.0000 
     15 C15        10.8035   -2.4006   -0.5426 C.ar      1 UNK         0.0000 
     16 C16        11.8593   -1.5510   -0.1937 C.ar      1 UNK         0.0000 
     17 C17        11.9084   -0.1473   -0.7566 C.3       1 UNK         0.0000 
     18 C18        12.8529   -2.0176    0.6651 C.ar      1 UNK         0.0000 
     19 C19        12.8644   -3.3330    1.1272 C.ar      1 UNK         0.0000 
     20 C20        14.0098   -3.8678    1.9787 C.3       1 UNK         0.0000 
     21 O21        13.8065   -3.4533    3.3284 O.3       1 UNK         0.0000 
     22 H22        15.8099   -3.3288    3.8333 H         1 UNK         0.0000 
     23 H23        14.2311   -5.7855    4.7467 H         1 UNK         0.0000 
     24 H24        15.9615   -5.5791    4.8331 H         1 UNK         0.0000 
     25 H25        15.2499   -6.9959    2.8809 H         1 UNK         0.0000 
     26 H26        16.1893   -5.6105    2.4108 H         1 UNK         0.0000 
     27 H27        14.4171   -5.6329    0.8595 H         1 UNK         0.0000 
     28 H28        12.3631   -5.8134    3.1215 H         1 UNK         0.0000 
     29 H29        11.9272   -7.9179    3.9995 H         1 UNK         0.0000 
     30 H30        12.0645  -10.3747    3.8484 H         1 UNK         0.0000 
     31 H31        12.9482  -11.4455    1.8024 H         1 UNK         0.0000 
     32 H32        13.6941  -10.0607   -0.1056 H         1 UNK         0.0000 
     33 H33        13.5643   -7.6071    0.0381 H         1 UNK         0.0000 
     34 H34        10.9595   -6.1267    0.9492 H         1 UNK         0.0000 
     35 H35         9.9494   -4.3500   -0.3377 H         1 UNK         0.0000 
     36 H36        10.0192   -2.0503   -1.1980 H         1 UNK         0.0000 
     37 H37        12.3953    0.5387   -0.0602 H         1 UNK         0.0000 
     38 H38        13.6797   -1.3606    0.9301 H         1 UNK         0.0000 
     39 H39        14.9415   -3.4345    1.6021 H         1 UNK         0.0000 
     40 H40        10.9014    0.2420   -0.9190 H         1 UNK         0.0000 
     41 H41        12.4520   -0.1379   -1.7028 H         1 UNK         0.0000 
     42 H42        14.7141   -3.3944    5.1910 H         1 UNK         0.0000 
@<TRIPOS>BOND
     1    1    2 1    
     2    1   21 1    
     3    1   22 1    
     4    1   42 1    
     5    2    3 1    
     6    2   23 1    
     7    2   24 1    
     8    3    4 1    
     9    3   25 1    
    10    3   26 1    
    11    4    5 1    
    12    4   20 1    
    13    4   27 1    
    14    5    6 1    
    15    5   12 1    
    16    5   28 1    
    17    6    7 ar   
    18    6   11 ar   
    19    7    8 ar   
    20    7   29 1    
    21    8    9 ar   
    22    8   30 1    
    23    9   10 ar   
    24    9   31 1    
    25   10   11 ar   
    26   10   32 1    
    27   11   33 1    
    28   12   13 1    
    29   12   34 1    
    30   13   14 ar   
    31   13   19 ar   
    32   14   15 ar   
    33   14   35 1    
    34   15   16 ar   
    35   15   36 1    
    36   16   17 1    
    37   16   18 ar   
    38   17   37 1    
    39   17   40 1    
    40   17   41 1    
    41   18   19 ar   
    42   18   38 1    
    43   19   20 1    
    44   20   21 1    
    45   20   39 1    
@<TRIPOS>SUBSTRUCTURE
     1 UNK         1 GROUP             0       ****    0 ROOT    
