@<TRIPOS>MOLECULE
CHEMBL1096002
52   55    1
SMALL
USER_CHARGES


@<TRIPOS>ATOM
      1 O1         14.9398   -6.5745    8.8289 O.3       1 UNK         0.0000 
      2 C2         14.5278   -5.2354    8.6990 C.3       1 UNK         0.0000 
      3 C3         15.2970   -4.6432    7.5290 C.3       1 UNK         0.0000 
      4 N4         14.2597   -3.9478    6.6599 N.4       1 UNK         0.0000 
      5 C5         14.7233   -3.0473    5.5240 C.3       1 UNK         0.0000 
      6 C6         14.9007   -3.7858    4.1855 C.3       1 UNK         0.0000 
      7 C7         15.0793   -5.3248    4.2415 C.3       1 UNK         0.0000 
      8 C8         15.2121   -5.9083    2.8276 C.3       1 UNK         0.0000 
      9 C9         14.0921   -5.4092    1.8855 C.3       1 UNK         0.0000 
     10 C10        12.7002   -6.0672    2.1302 C.3       1 UNK         0.0000 
     11 C11        12.7513   -7.5891    2.0317 C.ar      1 UNK         0.0000 
     12 C12        13.2402   -8.2009    0.8726 C.ar      1 UNK         0.0000 
     13 C13        13.3148   -9.5869    0.7909 C.ar      1 UNK         0.0000 
     14 C14        12.8991  -10.3621    1.8687 C.ar      1 UNK         0.0000 
     15 C15        12.3947   -9.7617    3.0192 C.ar      1 UNK         0.0000 
     16 C16        12.3191   -8.3736    3.1017 C.ar      1 UNK         0.0000 
     17 N17        11.7089   -5.5107    1.2081 N.pl3     1 UNK         0.0000 
     18 C18        11.7887   -4.1714    0.7851 C.ar      1 UNK         0.0000 
     19 C19        10.7851   -3.6834   -0.0443 C.ar      1 UNK         0.0000 
     20 F20         9.7425   -4.4576   -0.3412 F         1 UNK         0.0000 
     21 C21        10.8182   -2.3939   -0.5448 C.ar      1 UNK         0.0000 
     22 C22        11.8627   -1.5566   -0.1858 C.ar      1 UNK         0.0000 
     23 Cl23       11.9178    0.0446   -0.8143 Cl        1 UNK         0.0000 
     24 C24        12.8576   -2.0189    0.6758 C.ar      1 UNK         0.0000 
     25 C25        12.8659   -3.3411    1.1370 C.ar      1 UNK         0.0000 
     26 C26        14.0100   -3.8683    1.9858 C.3       1 UNK         0.0000 
     27 O27        13.8029   -3.4589    3.3367 O.3       1 UNK         0.0000 
     28 H28        14.7621   -6.8963    9.7167 H         1 UNK         0.0000 
     29 H29        13.4445   -5.1921    8.5389 H         1 UNK         0.0000 
     30 H30        14.7695   -4.6581    9.5903 H         1 UNK         0.0000 
     31 H31        16.0064   -3.8769    7.8397 H         1 UNK         0.0000 
     32 H32        15.7569   -5.4005    6.8992 H         1 UNK         0.0000 
     33 H33        13.6953   -4.6762    6.2499 H         1 UNK         0.0000 
     34 H34        13.8991   -2.3346    5.4864 H         1 UNK         0.0000 
     35 H35        15.6255   -2.5530    5.8731 H         1 UNK         0.0000 
     36 H36        15.7943   -3.3455    3.7481 H         1 UNK         0.0000 
     37 H37        15.9690   -5.5846    4.8129 H         1 UNK         0.0000 
     38 H38        14.2339   -5.7908    4.7491 H         1 UNK         0.0000 
     39 H39        16.1789   -5.6110    2.4141 H         1 UNK         0.0000 
     40 H40        15.2359   -6.9961    2.8742 H         1 UNK         0.0000 
     41 H41        14.3995   -5.6237    0.8615 H         1 UNK         0.0000 
     42 H42        12.3710   -5.8212    3.1419 H         1 UNK         0.0000 
     43 H43        13.5515   -7.6017    0.0296 H         1 UNK         0.0000 
     44 H44        13.6844  -10.0576   -0.1073 H         1 UNK         0.0000 
     45 H45        12.9569  -11.4391    1.8078 H         1 UNK         0.0000 
     46 H46        12.0632  -10.3709    3.8491 H         1 UNK         0.0000 
     47 H47        11.9276   -7.9067    3.9936 H         1 UNK         0.0000 
     48 H48        10.8156   -5.9913    1.1612 H         1 UNK         0.0000 
     49 H49        10.0246   -2.0468   -1.1894 H         1 UNK         0.0000 
     50 H50        13.6495   -1.3525    0.9762 H         1 UNK         0.0000 
     51 H51        14.9406   -3.4307    1.6172 H         1 UNK         0.0000 
     52 H52        13.7207   -3.3716    7.2905 H         1 UNK         0.0000 
@<TRIPOS>BOND
     1    1    2 1    
     2    1   28 1    
     3    2    3 1    
     4    2   29 1    
     5    2   30 1    
     6    3    4 1    
     7    3   31 1    
     8    3   32 1    
     9    4    5 1    
    10    4   33 1    
    11    4   52 1    
    12    5    6 1    
    13    5   34 1    
    14    5   35 1    
    15    6    7 1    
    16    6   27 1    
    17    6   36 1    
    18    7    8 1    
    19    7   37 1    
    20    7   38 1    
    21    8    9 1    
    22    8   39 1    
    23    8   40 1    
    24    9   10 1    
    25    9   26 1    
    26    9   41 1    
    27   10   11 1    
    28   10   17 1    
    29   10   42 1    
    30   11   12 ar   
    31   11   16 ar   
    32   12   13 ar   
    33   12   43 1    
    34   13   14 ar   
    35   13   44 1    
    36   14   15 ar   
    37   14   45 1    
    38   15   16 ar   
    39   15   46 1    
    40   16   47 1    
    41   17   18 1    
    42   17   48 1    
    43   18   19 ar   
    44   18   25 ar   
    45   19   20 1    
    46   19   21 ar   
    47   21   22 ar   
    48   21   49 1    
    49   22   23 1    
    50   22   24 ar   
    51   24   25 ar   
    52   24   50 1    
    53   25   26 1    
    54   26   27 1    
    55   26   51 1    
@<TRIPOS>SUBSTRUCTURE
     1 UNK         1 GROUP             0       ****    0 ROOT    
