@<TRIPOS>MOLECULE
CHEMBL1082248
48   51    1
SMALL
USER_CHARGES


@<TRIPOS>ATOM
      1 C1         15.2950   -4.6489    7.5427 C.3       1 UNK         0.0000 
      2 N2         14.2431   -3.9717    6.6832 N.4       1 UNK         0.0000 
      3 C3         14.7152   -3.0566    5.5506 C.3       1 UNK         0.0000 
      4 C4         14.8996   -3.7854    4.1962 C.3       1 UNK         0.0000 
      5 C5         15.0784   -5.3263    4.2419 C.3       1 UNK         0.0000 
      6 C6         15.2145   -5.9089    2.8275 C.3       1 UNK         0.0000 
      7 C7         14.0958   -5.4103    1.8854 C.3       1 UNK         0.0000 
      8 C8         12.7046   -6.0664    2.1334 C.3       1 UNK         0.0000 
      9 C9         12.7522   -7.5891    2.0319 C.ar      1 UNK         0.0000 
     10 C10        13.2426   -8.2016    0.8733 C.ar      1 UNK         0.0000 
     11 C11        13.3140   -9.5878    0.7904 C.ar      1 UNK         0.0000 
     12 C12        12.8993  -10.3629    1.8685 C.ar      1 UNK         0.0000 
     13 C13        12.3976   -9.7624    3.0199 C.ar      1 UNK         0.0000 
     14 C14        12.3188   -8.3746    3.1014 C.ar      1 UNK         0.0000 
     15 N15        11.7003   -5.5083    1.2297 N.pl3     1 UNK         0.0000 
     16 C16        11.7953   -4.1716    0.7885 C.ar      1 UNK         0.0000 
     17 C17        10.7805   -3.6907   -0.0459 C.ar      1 UNK         0.0000 
     18 F18         9.7395   -4.4635   -0.3381 F         1 UNK         0.0000 
     19 C19        10.8168   -2.3885   -0.5402 C.ar      1 UNK         0.0000 
     20 C20        11.8588   -1.5562   -0.1789 C.ar      1 UNK         0.0000 
     21 Br21       11.9219    0.2266   -0.8239 Br        1 UNK         0.0000 
     22 C22        12.8579   -2.0181    0.6739 C.ar      1 UNK         0.0000 
     23 C23        12.8701   -3.3425    1.1348 C.ar      1 UNK         0.0000 
     24 C24        14.0136   -3.8673    1.9896 C.3       1 UNK         0.0000 
     25 O25        13.8021   -3.4602    3.3414 O.3       1 UNK         0.0000 
     26 H26        14.6722   -5.3376    8.1135 H         1 UNK         0.0000 
     27 H27        15.7378   -3.8667    8.1578 H         1 UNK         0.0000 
     28 H28        15.9889   -5.1440    6.8693 H         1 UNK         0.0000 
     29 H29        13.6986   -4.7078    6.2653 H         1 UNK         0.0000 
     30 H30        13.9006   -2.3314    5.5188 H         1 UNK         0.0000 
     31 H31        15.6229   -2.5742    5.9093 H         1 UNK         0.0000 
     32 H32        15.8010   -3.3533    3.7592 H         1 UNK         0.0000 
     33 H33        15.9669   -5.5897    4.8122 H         1 UNK         0.0000 
     34 H34        14.2332   -5.7983    4.7432 H         1 UNK         0.0000 
     35 H35        16.1816   -5.6138    2.4140 H         1 UNK         0.0000 
     36 H36        15.2390   -6.9966    2.8739 H         1 UNK         0.0000 
     37 H37        14.4023   -5.6396    0.8642 H         1 UNK         0.0000 
     38 H38        12.3631   -5.8282    3.1420 H         1 UNK         0.0000 
     39 H39        13.5605   -7.6046    0.0315 H         1 UNK         0.0000 
     40 H40        13.6817  -10.0581   -0.1090 H         1 UNK         0.0000 
     41 H41        12.9563  -11.4399    1.8085 H         1 UNK         0.0000 
     42 H42        12.0729  -10.3710    3.8527 H         1 UNK         0.0000 
     43 H43        11.9266   -7.9115    3.9950 H         1 UNK         0.0000 
     44 H44        10.7715   -5.8527    1.4458 H         1 UNK         0.0000 
     45 H45        10.0125   -2.0341   -1.1684 H         1 UNK         0.0000 
     46 H46        13.6352   -1.3316    0.9629 H         1 UNK         0.0000 
     47 H47        14.9508   -3.4231    1.6469 H         1 UNK         0.0000 
     48 H48        13.6821   -3.4293    7.3237 H         1 UNK         0.0000 
@<TRIPOS>BOND
     1    1    2 1    
     2    1   26 1    
     3    1   27 1    
     4    1   28 1    
     5    2    3 1    
     6    2   29 1    
     7    2   48 1    
     8    3    4 1    
     9    3   30 1    
    10    3   31 1    
    11    4    5 1    
    12    4   25 1    
    13    4   32 1    
    14    5    6 1    
    15    5   33 1    
    16    5   34 1    
    17    6    7 1    
    18    6   35 1    
    19    6   36 1    
    20    7    8 1    
    21    7   24 1    
    22    7   37 1    
    23    8    9 1    
    24    8   15 1    
    25    8   38 1    
    26    9   10 ar   
    27    9   14 ar   
    28   10   11 ar   
    29   10   39 1    
    30   11   12 ar   
    31   11   40 1    
    32   12   13 ar   
    33   12   41 1    
    34   13   14 ar   
    35   13   42 1    
    36   14   43 1    
    37   15   16 1    
    38   15   44 1    
    39   16   17 ar   
    40   16   23 ar   
    41   17   18 1    
    42   17   19 ar   
    43   19   20 ar   
    44   19   45 1    
    45   20   21 1    
    46   20   22 ar   
    47   22   23 ar   
    48   22   46 1    
    49   23   24 1    
    50   24   25 1    
    51   24   47 1    
@<TRIPOS>SUBSTRUCTURE
     1 UNK         1 GROUP             0       ****    0 ROOT    
