@<TRIPOS>MOLECULE
CHEMBL1084115
48   51    1
SMALL
USER_CHARGES


@<TRIPOS>ATOM
      1 C1         12.7905    0.8113    0.0884 C.3       1 UNK         0.0000 
      2 C2         11.9263   -0.1652   -0.7557 C.3       1 UNK         0.0000 
      3 C3         12.4938   -0.2209   -2.1702 C.3       1 UNK         0.0000 
      4 C4         10.4639    0.3327   -0.8178 C.3       1 UNK         0.0000 
      5 C5         11.8952   -1.5870   -0.1857 C.ar      1 UNK         0.0000 
      6 C6         10.8567   -2.4703   -0.5485 C.ar      1 UNK         0.0000 
      7 C7         10.8008   -3.7530   -0.0487 C.ar      1 UNK         0.0000 
      8 C8         11.8122   -4.2238    0.7871 C.ar      1 UNK         0.0000 
      9 C9         12.8826   -3.3657    1.1452 C.ar      1 UNK         0.0000 
     10 C10        12.8768   -2.0583    0.6771 C.ar      1 UNK         0.0000 
     11 C11        14.0286   -3.8762    1.9932 C.3       1 UNK         0.0000 
     12 O12        13.8036   -3.4388    3.3367 O.3       1 UNK         0.0000 
     13 C13        14.8743   -3.7832    4.2226 C.3       1 UNK         0.0000 
     14 C14        15.0676   -5.3199    4.2586 C.3       1 UNK         0.0000 
     15 C15        15.2317   -5.8973    2.8508 C.3       1 UNK         0.0000 
     16 C16        14.1288   -5.4003    1.8929 C.3       1 UNK         0.0000 
     17 C17        12.7338   -6.0798    2.1298 C.3       1 UNK         0.0000 
     18 C18        12.7833   -7.5758    1.9513 C.2       1 UNK         0.0000 
     19 C19        13.3328   -8.2240    0.8368 C.2       1 UNK         0.0000 
     20 C20        13.3036   -9.5996    0.9042 C.2       1 UNK         0.0000 
     21 S21        12.5533  -10.1505    2.3594 S.3       1 UNK         0.0000 
     22 C22        12.2835   -8.5069    2.8549 C.2       1 UNK         0.0000 
     23 N23        11.7330   -5.5400    1.2141 N.pl3     1 UNK         0.0000 
     24 H24        12.8774    1.8196   -0.3202 H         1 UNK         0.0000 
     25 H25        13.7853    0.3992    0.1623 H         1 UNK         0.0000 
     26 H26        12.5316    0.8875    1.1493 H         1 UNK         0.0000 
     27 H27        12.5396    0.7334   -2.7014 H         1 UNK         0.0000 
     28 H28        11.8012   -0.8731   -2.7045 H         1 UNK         0.0000 
     29 H29        13.4817   -0.6704   -2.2071 H         1 UNK         0.0000 
     30 H30         9.7760   -0.2126   -1.4624 H         1 UNK         0.0000 
     31 H31        10.2442    1.3554   -1.1064 H         1 UNK         0.0000 
     32 H32        10.1299    0.2315    0.2170 H         1 UNK         0.0000 
     33 H33        10.0702   -2.1959   -1.2188 H         1 UNK         0.0000 
     34 H34         9.9698   -4.3894   -0.3253 H         1 UNK         0.0000 
     35 H35        13.7147   -1.4524    0.9854 H         1 UNK         0.0000 
     36 H36        14.9578   -3.4374    1.6153 H         1 UNK         0.0000 
     37 H37        15.7930   -3.3245    3.8765 H         1 UNK         0.0000 
     38 H38        14.6628   -3.3951    5.2148 H         1 UNK         0.0000 
     39 H39        15.9430   -5.5641    4.8625 H         1 UNK         0.0000 
     40 H40        14.2109   -5.7763    4.7551 H         1 UNK         0.0000 
     41 H41        16.2014   -5.6107    2.4371 H         1 UNK         0.0000 
     42 H42        15.2555   -6.9840    2.9015 H         1 UNK         0.0000 
     43 H43        14.4523   -5.5955    0.8708 H         1 UNK         0.0000 
     44 H44        12.3885   -5.8052    3.1269 H         1 UNK         0.0000 
     45 H45        13.7581   -7.6897    0.0035 H         1 UNK         0.0000 
     46 H46        13.6812  -10.3029    0.1651 H         1 UNK         0.0000 
     47 H47        11.7910   -8.3088    3.7910 H         1 UNK         0.0000 
     48 H48        10.8761   -6.0660    1.1786 H         1 UNK         0.0000 
@<TRIPOS>BOND
     1    1    2 1    
     2    1   24 1    
     3    1   25 1    
     4    1   26 1    
     5    2    3 1    
     6    2    4 1    
     7    2    5 1    
     8    3   27 1    
     9    3   28 1    
    10    3   29 1    
    11    4   30 1    
    12    4   31 1    
    13    4   32 1    
    14    5    6 ar   
    15    5   10 ar   
    16    6    7 ar   
    17    6   33 1    
    18    7    8 ar   
    19    7   34 1    
    20    8    9 ar   
    21    8   23 1    
    22    9   10 ar   
    23    9   11 1    
    24   10   35 1    
    25   11   12 1    
    26   11   16 1    
    27   11   36 1    
    28   12   13 1    
    29   13   14 1    
    30   13   37 1    
    31   13   38 1    
    32   14   15 1    
    33   14   39 1    
    34   14   40 1    
    35   15   16 1    
    36   15   41 1    
    37   15   42 1    
    38   16   17 1    
    39   16   43 1    
    40   17   18 1    
    41   17   23 1    
    42   17   44 1    
    43   18   19 1    
    44   18   22 2    
    45   19   20 2    
    46   19   45 1    
    47   20   21 1    
    48   20   46 1    
    49   21   22 1    
    50   22   47 1    
    51   23   48 1    
@<TRIPOS>SUBSTRUCTURE
     1 UNK         1 GROUP             0       ****    0 ROOT    
