@<TRIPOS>MOLECULE
CHEMBL1093088
51   55    1
SMALL
USER_CHARGES


@<TRIPOS>ATOM
      1 F1         10.6683    0.3259   -0.9315 F         1 UNK         0.0000 
      2 C2         11.9092   -0.1373   -0.7426 C.3       1 UNK         0.0000 
      3 F3         12.5572    0.6970    0.0708 F         1 UNK         0.0000 
      4 F4         12.5317   -0.1562   -1.9180 F         1 UNK         0.0000 
      5 C5         11.8546   -1.5518   -0.1871 C.ar      1 UNK         0.0000 
      6 C6         10.8042   -2.4028   -0.5323 C.ar      1 UNK         0.0000 
      7 C7         10.7730   -3.7099   -0.0542 C.ar      1 UNK         0.0000 
      8 C8         11.8144   -4.1935    0.7396 C.ar      1 UNK         0.0000 
      9 C9         12.8923   -3.3560    1.0946 C.ar      1 UNK         0.0000 
     10 C10        12.8665   -2.0258    0.6545 C.ar      1 UNK         0.0000 
     11 C11        14.0494   -3.8568    1.9562 C.3       1 UNK         0.0000 
     12 O12        13.8553   -3.4173    3.2710 O.3       1 UNK         0.0000 
     13 C13        14.8976   -3.7605    4.1929 C.3       1 UNK         0.0000 
     14 C14        14.6578   -3.1005    5.5680 C.3       1 UNK         0.0000 
     15 N15        13.2465   -2.9226    5.9121 N.pl3     1 UNK         0.0000 
     16 C16        12.6204   -3.1518    7.1038 C.ar      1 UNK         0.0000 
     17 N17        11.3473   -2.8639    7.0012 N.2       1 UNK         0.0000 
     18 C18        11.2559   -2.4452    5.7470 C.ar      1 UNK         0.0000 
     19 N19        12.3327   -2.4354    5.0401 N.2       1 UNK         0.0000 
     20 C20        15.0684   -5.3101    4.2439 C.3       1 UNK         0.0000 
     21 C21        15.2209   -5.9171    2.8316 C.3       1 UNK         0.0000 
     22 C22        14.1192   -5.4200    1.8687 C.3       1 UNK         0.0000 
     23 C23        12.7212   -6.0707    2.1169 C.3       1 UNK         0.0000 
     24 C24        12.7592   -7.5954    2.0346 C.ar      1 UNK         0.0000 
     25 C25        12.3228   -8.3777    3.1055 C.ar      1 UNK         0.0000 
     26 C26        12.4048   -9.7653    3.0253 C.ar      1 UNK         0.0000 
     27 C27        12.9049  -10.3677    1.8739 C.ar      1 UNK         0.0000 
     28 C28        13.3264   -9.5938    0.7972 C.ar      1 UNK         0.0000 
     29 C29        13.2517   -8.2084    0.8785 C.ar      1 UNK         0.0000 
     30 N30        11.7331   -5.5251    1.1808 N.pl3     1 UNK         0.0000 
     31 H31        10.0213   -2.0601   -1.1960 H         1 UNK         0.0000 
     32 H32         9.9490   -4.3496   -0.3314 H         1 UNK         0.0000 
     33 H33        13.6823   -1.3752    0.9329 H         1 UNK         0.0000 
     34 H34        14.9905   -3.4672    1.5172 H         1 UNK         0.0000 
     35 H35        15.8414   -3.3531    3.8085 H         1 UNK         0.0000 
     36 H36        15.1289   -3.6931    6.3577 H         1 UNK         0.0000 
     37 H37        15.1239   -2.1134    5.5876 H         1 UNK         0.0000 
     38 H38        13.1580   -3.5076    7.9813 H         1 UNK         0.0000 
     39 H39        10.2992   -2.1530    5.3209 H         1 UNK         0.0000 
     40 H40        15.9422   -5.5750    4.8418 H         1 UNK         0.0000 
     41 H41        14.2208   -5.7508    4.7597 H         1 UNK         0.0000 
     42 H42        16.1877   -5.6158    2.4310 H         1 UNK         0.0000 
     43 H43        15.2476   -7.0045    2.9003 H         1 UNK         0.0000 
     44 H44        14.4309   -5.6815    0.8489 H         1 UNK         0.0000 
     45 H45        12.3740   -5.8074    3.1180 H         1 UNK         0.0000 
     46 H46        11.9307   -7.9163    4.0008 H         1 UNK         0.0000 
     47 H47        12.0690  -10.3755    3.8528 H         1 UNK         0.0000 
     48 H48        12.9609  -11.4432    1.8091 H         1 UNK         0.0000 
     49 H49        13.6968  -10.0592   -0.1007 H         1 UNK         0.0000 
     50 H50        13.5613   -7.6079    0.0375 H         1 UNK         0.0000 
     51 H51        10.8982   -6.0840    1.0444 H         1 UNK         0.0000 
@<TRIPOS>BOND
     1    1    2 1    
     2    2    3 1    
     3    2    4 1    
     4    2    5 1    
     5    5    6 ar   
     6    5   10 ar   
     7    6    7 ar   
     8    6   31 1    
     9    7    8 ar   
    10    7   32 1    
    11    8    9 ar   
    12    8   30 1    
    13    9   10 ar   
    14    9   11 1    
    15   10   33 1    
    16   11   12 1    
    17   11   22 1    
    18   11   34 1    
    19   12   13 1    
    20   13   14 1    
    21   13   20 1    
    22   13   35 1    
    23   14   15 1    
    24   14   36 1    
    25   14   37 1    
    26   15   16 ar   
    27   15   19 ar   
    28   16   17 ar   
    29   16   38 1    
    30   17   18 ar   
    31   18   19 ar   
    32   18   39 1    
    33   20   21 1    
    34   20   40 1    
    35   20   41 1    
    36   21   22 1    
    37   21   42 1    
    38   21   43 1    
    39   22   23 1    
    40   22   44 1    
    41   23   24 1    
    42   23   30 1    
    43   23   45 1    
    44   24   25 ar   
    45   24   29 ar   
    46   25   26 ar   
    47   25   46 1    
    48   26   27 ar   
    49   26   47 1    
    50   27   28 ar   
    51   27   48 1    
    52   28   29 ar   
    53   28   49 1    
    54   29   50 1    
    55   30   51 1    
@<TRIPOS>SUBSTRUCTURE
     1 UNK         1 GROUP             0       ****    0 ROOT    
