@<TRIPOS>MOLECULE
CHEMBL1084143
74   77    1
SMALL
USER_CHARGES


@<TRIPOS>ATOM
      1 C1         11.3979   -0.1021   -2.1574 C.3       1 UNK         0.0000 
      2 C2         11.9038   -0.1354   -0.7457 C.3       1 UNK         0.0000 
      3 C3         11.0501    0.7757    0.0856 C.3       1 UNK         0.0000 
      4 C4         11.8578   -1.5536   -0.1865 C.ar      1 UNK         0.0000 
      5 C5         10.8089   -2.4050   -0.5396 C.ar      1 UNK         0.0000 
      6 C6         10.7743   -3.7096   -0.0570 C.ar      1 UNK         0.0000 
      7 C7         11.7936   -4.1831    0.7614 C.ar      1 UNK         0.0000 
      8 C8         12.8662   -3.3440    1.1312 C.ar      1 UNK         0.0000 
      9 C9         12.8594   -2.0221    0.6688 C.ar      1 UNK         0.0000 
     10 C10        14.0156   -3.8719    1.9779 C.3       1 UNK         0.0000 
     11 O11        13.8095   -3.4697    3.3345 O.3       1 UNK         0.0000 
     12 C12        14.9090   -3.7899    4.1939 C.3       1 UNK         0.0000 
     13 C13        14.7292   -3.0772    5.5493 C.3       1 UNK         0.0000 
     14 N14        14.3931   -3.9357    6.7113 N.pl3     1 UNK         0.0000 
     15 S15        15.6866   -4.1881    7.8512 S.o2      1 UNK         0.0000 
     16 O16        15.9605   -2.8994    8.4965 O.2       1 UNK         0.0000 
     17 O17        16.7692   -4.9053    7.1723 O.2       1 UNK         0.0000 
     18 C18        14.8572   -5.3740    9.0989 C.3       1 UNK         0.0000 
     19 C19        15.9171   -5.9921   10.0050 C.3       1 UNK         0.0000 
     20 C20        15.3040   -6.9172   11.0141 C.3       1 UNK         0.0000 
     21 N21        16.3536   -7.4832   11.8564 N.4       1 UNK         0.0000 
     22 C22        15.7569   -8.3836   12.8386 C.3       1 UNK         0.0000 
     23 C23        17.2969   -8.2258   11.0254 C.3       1 UNK         0.0000 
     24 C24        15.0802   -5.3264    4.2516 C.3       1 UNK         0.0000 
     25 C25        15.2184   -5.9103    2.8356 C.3       1 UNK         0.0000 
     26 C26        14.1038   -5.4145    1.8827 C.3       1 UNK         0.0000 
     27 C27        12.7108   -6.0690    2.1214 C.3       1 UNK         0.0000 
     28 C28        12.7593   -7.5926    2.0373 C.ar      1 UNK         0.0000 
     29 C29        13.2528   -8.2067    0.8813 C.ar      1 UNK         0.0000 
     30 C30        13.3297   -9.5928    0.7978 C.ar      1 UNK         0.0000 
     31 C31        12.9076  -10.3673    1.8725 C.ar      1 UNK         0.0000 
     32 C32        12.4034   -9.7655    3.0228 C.ar      1 UNK         0.0000 
     33 C33        12.3256   -8.3763    3.1078 C.ar      1 UNK         0.0000 
     34 N34        11.7374   -5.5233    1.1763 N.pl3     1 UNK         0.0000 
     35 H35        12.0073   -0.7596   -2.7774 H         1 UNK         0.0000 
     36 H36        11.4572    0.9166   -2.5407 H         1 UNK         0.0000 
     37 H37        10.3615   -0.4390   -2.1801 H         1 UNK         0.0000 
     38 H38        12.9225    0.2532   -0.7443 H         1 UNK         0.0000 
     39 H39        11.4035    0.7643    1.1166 H         1 UNK         0.0000 
     40 H40        10.0154    0.4346    0.0524 H         1 UNK         0.0000 
     41 H41        11.1110    1.7902   -0.3082 H         1 UNK         0.0000 
     42 H42        10.0204   -2.0579   -1.1913 H         1 UNK         0.0000 
     43 H43         9.9573   -4.3549   -0.3431 H         1 UNK         0.0000 
     44 H44        13.6721   -1.3692    0.9509 H         1 UNK         0.0000 
     45 H45        14.9390   -3.4275    1.6025 H         1 UNK         0.0000 
     46 H46        15.8061   -3.3644    3.7393 H         1 UNK         0.0000 
     47 H47        15.6460   -2.5318    5.7826 H         1 UNK         0.0000 
     48 H48        13.9634   -2.3063    5.4584 H         1 UNK         0.0000 
     49 H49        14.0645   -4.8324    6.3635 H         1 UNK         0.0000 
     50 H50        14.1276   -4.7955    9.6643 H         1 UNK         0.0000 
     51 H51        14.3350   -6.1477    8.5414 H         1 UNK         0.0000 
     52 H52        16.6443   -6.5599    9.4232 H         1 UNK         0.0000 
     53 H53        16.4626   -5.2168   10.5445 H         1 UNK         0.0000 
     54 H54        14.5998   -6.3628   11.6345 H         1 UNK         0.0000 
     55 H55        14.7790   -7.7211   10.4983 H         1 UNK         0.0000 
     56 H56        15.2319   -9.1875   12.3228 H         1 UNK         0.0000 
     57 H57        15.0527   -7.8292   13.4590 H         1 UNK         0.0000 
     58 H58        16.5405   -8.8062   13.4674 H         1 UNK         0.0000 
     59 H59        16.7719   -9.0297   10.5095 H         1 UNK         0.0000 
     60 H60        18.0805   -8.6484   11.6542 H         1 UNK         0.0000 
     61 H61        17.7424   -7.5536   10.2921 H         1 UNK         0.0000 
     62 H62        15.9570   -5.5928    4.8416 H         1 UNK         0.0000 
     63 H63        14.2182   -5.7833    4.7368 H         1 UNK         0.0000 
     64 H64        16.1821   -5.6020    2.4289 H         1 UNK         0.0000 
     65 H65        15.2502   -6.9993    2.8743 H         1 UNK         0.0000 
     66 H66        14.4134   -5.6570    0.8656 H         1 UNK         0.0000 
     67 H67        12.3692   -5.7931    3.1202 H         1 UNK         0.0000 
     68 H68        13.5722   -7.6049    0.0431 H         1 UNK         0.0000 
     69 H69        13.7130  -10.0631   -0.0960 H         1 UNK         0.0000 
     70 H70        12.9657  -11.4445    1.8120 H         1 UNK         0.0000 
     71 H71        12.0728  -10.3765    3.8502 H         1 UNK         0.0000 
     72 H72        11.9366   -7.9114    4.0019 H         1 UNK         0.0000 
     73 H73        10.9582   -6.1105    0.9179 H         1 UNK         0.0000 
     74 H74        16.8401   -6.7382   12.3344 H         1 UNK         0.0000 
@<TRIPOS>BOND
     1    1    2 1    
     2    1   35 1    
     3    1   36 1    
     4    1   37 1    
     5    2    3 1    
     6    2    4 1    
     7    2   38 1    
     8    3   39 1    
     9    3   40 1    
    10    3   41 1    
    11    4    5 ar   
    12    4    9 ar   
    13    5    6 ar   
    14    5   42 1    
    15    6    7 ar   
    16    6   43 1    
    17    7    8 ar   
    18    7   34 1    
    19    8    9 ar   
    20    8   10 1    
    21    9   44 1    
    22   10   11 1    
    23   10   26 1    
    24   10   45 1    
    25   11   12 1    
    26   12   13 1    
    27   12   24 1    
    28   12   46 1    
    29   13   14 1    
    30   13   47 1    
    31   13   48 1    
    32   14   15 1    
    33   14   49 1    
    34   15   16 2    
    35   15   17 2    
    36   15   18 1    
    37   18   19 1    
    38   18   50 1    
    39   18   51 1    
    40   19   20 1    
    41   19   52 1    
    42   19   53 1    
    43   20   21 1    
    44   20   54 1    
    45   20   55 1    
    46   21   22 1    
    47   21   23 1    
    48   21   74 1    
    49   22   56 1    
    50   22   57 1    
    51   22   58 1    
    52   23   59 1    
    53   23   60 1    
    54   23   61 1    
    55   24   25 1    
    56   24   62 1    
    57   24   63 1    
    58   25   26 1    
    59   25   64 1    
    60   25   65 1    
    61   26   27 1    
    62   26   66 1    
    63   27   28 1    
    64   27   34 1    
    65   27   67 1    
    66   28   29 ar   
    67   28   33 ar   
    68   29   30 ar   
    69   29   68 1    
    70   30   31 ar   
    71   30   69 1    
    72   31   32 ar   
    73   31   70 1    
    74   32   33 ar   
    75   32   71 1    
    76   33   72 1    
    77   34   73 1    
@<TRIPOS>SUBSTRUCTURE
     1 UNK         1 GROUP             0       ****    0 ROOT    
