@<TRIPOS>MOLECULE
CHEMBL1084678
65   68    1
SMALL
USER_CHARGES


@<TRIPOS>ATOM
      1 C1         13.9216   -5.2248    6.2140 C.3       1 UNK         0.0000 
      2 N2         14.3931   -3.9357    6.7113 N.pl3     1 UNK         0.0000 
      3 C3         14.7292   -3.0772    5.5493 C.3       1 UNK         0.0000 
      4 C4         14.9090   -3.7899    4.1939 C.3       1 UNK         0.0000 
      5 C5         15.0802   -5.3264    4.2516 C.3       1 UNK         0.0000 
      6 C6         15.2184   -5.9103    2.8356 C.3       1 UNK         0.0000 
      7 C7         14.1038   -5.4145    1.8827 C.3       1 UNK         0.0000 
      8 C8         12.7108   -6.0690    2.1214 C.3       1 UNK         0.0000 
      9 C9         12.7593   -7.5926    2.0373 C.ar      1 UNK         0.0000 
     10 C10        13.2528   -8.2067    0.8813 C.ar      1 UNK         0.0000 
     11 C11        13.3297   -9.5928    0.7978 C.ar      1 UNK         0.0000 
     12 C12        12.9076  -10.3673    1.8725 C.ar      1 UNK         0.0000 
     13 C13        12.4034   -9.7655    3.0228 C.ar      1 UNK         0.0000 
     14 C14        12.3256   -8.3763    3.1078 C.ar      1 UNK         0.0000 
     15 N15        11.7374   -5.5233    1.1763 N.pl3     1 UNK         0.0000 
     16 C16        11.7936   -4.1831    0.7614 C.ar      1 UNK         0.0000 
     17 C17        10.7743   -3.7096   -0.0570 C.ar      1 UNK         0.0000 
     18 C18        10.8089   -2.4050   -0.5396 C.ar      1 UNK         0.0000 
     19 C19        11.8578   -1.5536   -0.1865 C.ar      1 UNK         0.0000 
     20 C20        11.9038   -0.1354   -0.7457 C.3       1 UNK         0.0000 
     21 F21        12.5538    0.6943    0.0706 F         1 UNK         0.0000 
     22 F22        10.6704    0.3354   -0.9312 F         1 UNK         0.0000 
     23 F23        12.5323   -0.1555   -1.9215 F         1 UNK         0.0000 
     24 C24        12.8594   -2.0221    0.6688 C.ar      1 UNK         0.0000 
     25 C25        12.8662   -3.3440    1.1312 C.ar      1 UNK         0.0000 
     26 C26        14.0156   -3.8719    1.9779 C.3       1 UNK         0.0000 
     27 O27        13.8095   -3.4697    3.3345 O.3       1 UNK         0.0000 
     28 S28        15.6866   -4.1881    7.8512 S.o2      1 UNK         0.0000 
     29 O29        15.9605   -2.8994    8.4965 O.2       1 UNK         0.0000 
     30 O30        16.7692   -4.9053    7.1723 O.2       1 UNK         0.0000 
     31 C31        14.8572   -5.3740    9.0989 C.3       1 UNK         0.0000 
     32 C32        15.9171   -5.9921   10.0050 C.3       1 UNK         0.0000 
     33 C33        15.3038   -6.9160   11.0151 C.3       1 UNK         0.0000 
     34 N34        16.3534   -7.4821   11.8573 N.4       1 UNK         0.0000 
     35 H35        13.1126   -5.0654    5.5011 H         1 UNK         0.0000 
     36 H36        13.5579   -5.8251    7.0480 H         1 UNK         0.0000 
     37 H37        14.7422   -5.7465    5.7215 H         1 UNK         0.0000 
     38 H38        13.9642   -2.3054    5.4592 H         1 UNK         0.0000 
     39 H39        15.6464   -2.5325    5.7827 H         1 UNK         0.0000 
     40 H40        15.8063   -3.3644    3.7396 H         1 UNK         0.0000 
     41 H41        15.9574   -5.5924    4.8413 H         1 UNK         0.0000 
     42 H42        14.2186   -5.7837    4.7374 H         1 UNK         0.0000 
     43 H43        16.1824   -5.6023    2.4292 H         1 UNK         0.0000 
     44 H44        15.2504   -6.9993    2.8747 H         1 UNK         0.0000 
     45 H45        14.4142   -5.6578    0.8660 H         1 UNK         0.0000 
     46 H46        12.3696   -5.7939    3.1206 H         1 UNK         0.0000 
     47 H47        13.5731   -7.6058    0.0429 H         1 UNK         0.0000 
     48 H48        13.7135  -10.0635   -0.0957 H         1 UNK         0.0000 
     49 H49        12.9663  -11.4447    1.8125 H         1 UNK         0.0000 
     50 H50        12.0731  -10.3767    3.8503 H         1 UNK         0.0000 
     51 H51        11.9367   -7.9121    4.0023 H         1 UNK         0.0000 
     52 H52        10.9629   -6.1171    0.9159 H         1 UNK         0.0000 
     53 H53         9.9574   -4.3554   -0.3440 H         1 UNK         0.0000 
     54 H54        10.0263   -2.0526   -1.1952 H         1 UNK         0.0000 
     55 H55        13.6706   -1.3642    0.9426 H         1 UNK         0.0000 
     56 H56        14.9395   -3.4278    1.6031 H         1 UNK         0.0000 
     57 H57        14.1288   -4.7959    9.6664 H         1 UNK         0.0000 
     58 H58        14.3347   -6.1489    8.5436 H         1 UNK         0.0000 
     59 H59        16.6439   -6.5608    9.4235 H         1 UNK         0.0000 
     60 H60        16.4631   -5.2166   10.5437 H         1 UNK         0.0000 
     61 H61        14.6002   -6.3607   11.6353 H         1 UNK         0.0000 
     62 H62        14.7780   -7.7200   10.5000 H         1 UNK         0.0000 
     63 H63        15.9405   -8.1042   12.5374 H         1 UNK         0.0000 
     64 H64        16.8406   -6.7371   12.3345 H         1 UNK         0.0000 
     65 H65        17.0054   -7.9967   11.2826 H         1 UNK         0.0000 
@<TRIPOS>BOND
     1    1    2 1    
     2    1   35 1    
     3    1   36 1    
     4    1   37 1    
     5    2    3 1    
     6    2   28 1    
     7    3    4 1    
     8    3   38 1    
     9    3   39 1    
    10    4    5 1    
    11    4   27 1    
    12    4   40 1    
    13    5    6 1    
    14    5   41 1    
    15    5   42 1    
    16    6    7 1    
    17    6   43 1    
    18    6   44 1    
    19    7    8 1    
    20    7   26 1    
    21    7   45 1    
    22    8    9 1    
    23    8   15 1    
    24    8   46 1    
    25    9   10 ar   
    26    9   14 ar   
    27   10   11 ar   
    28   10   47 1    
    29   11   12 ar   
    30   11   48 1    
    31   12   13 ar   
    32   12   49 1    
    33   13   14 ar   
    34   13   50 1    
    35   14   51 1    
    36   15   16 1    
    37   15   52 1    
    38   16   17 ar   
    39   16   25 ar   
    40   17   18 ar   
    41   17   53 1    
    42   18   19 ar   
    43   18   54 1    
    44   19   20 1    
    45   19   24 ar   
    46   20   21 1    
    47   20   22 1    
    48   20   23 1    
    49   24   25 ar   
    50   24   55 1    
    51   25   26 1    
    52   26   27 1    
    53   26   56 1    
    54   28   29 2    
    55   28   30 2    
    56   28   31 1    
    57   31   32 1    
    58   31   57 1    
    59   31   58 1    
    60   32   33 1    
    61   32   59 1    
    62   32   60 1    
    63   33   34 1    
    64   33   61 1    
    65   33   62 1    
    66   34   63 1    
    67   34   64 1    
    68   34   65 1    
@<TRIPOS>SUBSTRUCTURE
     1 UNK         1 GROUP             0       ****    0 ROOT    
