@<TRIPOS>MOLECULE
CHEMBL1085666
48   51    1
SMALL
USER_CHARGES


@<TRIPOS>ATOM
      1 N1         14.3165   -4.0041    6.7057 N.4       1 UNK         0.0000 
      2 C2         14.6800   -3.0520    5.5568 C.3       1 UNK         0.0000 
      3 C3         14.9014   -3.7767    4.2034 C.3       1 UNK         0.0000 
      4 C4         15.0794   -5.3204    4.2560 C.3       1 UNK         0.0000 
      5 C5         15.2134   -5.9116    2.8388 C.3       1 UNK         0.0000 
      6 C6         14.1000   -5.4138    1.8842 C.3       1 UNK         0.0000 
      7 C7         12.7075   -6.0661    2.1333 C.3       1 UNK         0.0000 
      8 C8         12.7523   -7.5906    2.0360 C.ar      1 UNK         0.0000 
      9 C9         12.3188   -8.3771    3.1048 C.ar      1 UNK         0.0000 
     10 C10        12.4038   -9.7653    3.0219 C.ar      1 UNK         0.0000 
     11 C11        12.9145  -10.3670    1.8742 C.ar      1 UNK         0.0000 
     12 C12        13.3307   -9.5915    0.7997 C.ar      1 UNK         0.0000 
     13 C13        13.2510   -8.2048    0.8812 C.ar      1 UNK         0.0000 
     14 N14        11.7043   -5.5100    1.2252 N.pl3     1 UNK         0.0000 
     15 C15        11.7866   -4.1781    0.7837 C.ar      1 UNK         0.0000 
     16 C16        10.7799   -3.7112   -0.0569 C.ar      1 UNK         0.0000 
     17 C17        10.8200   -2.4096   -0.5450 C.ar      1 UNK         0.0000 
     18 C18        11.8586   -1.5528   -0.1813 C.ar      1 UNK         0.0000 
     19 C19        11.9069   -0.1362   -0.7423 C.3       1 UNK         0.0000 
     20 F20        12.5326   -0.1571   -1.9193 F         1 UNK         0.0000 
     21 F21        10.6732    0.3298   -0.9284 F         1 UNK         0.0000 
     22 F22        12.5588    0.6950    0.0707 F         1 UNK         0.0000 
     23 C23        12.8553   -2.0181    0.6851 C.ar      1 UNK         0.0000 
     24 C24        12.8601   -3.3413    1.1433 C.ar      1 UNK         0.0000 
     25 C25        14.0134   -3.8725    1.9818 C.3       1 UNK         0.0000 
     26 O26        13.8054   -3.4743    3.3377 O.3       1 UNK         0.0000 
     27 H27        14.1083   -3.4755    7.5374 H         1 UNK         0.0000 
     28 H28        15.0831   -4.6260    6.9124 H         1 UNK         0.0000 
     29 H29        13.8569   -2.3375    5.5186 H         1 UNK         0.0000 
     30 H30        15.5810   -2.5393    5.9003 H         1 UNK         0.0000 
     31 H31        15.8116   -3.3319    3.7907 H         1 UNK         0.0000 
     32 H32        15.9615   -5.5868    4.8374 H         1 UNK         0.0000 
     33 H33        14.2305   -5.7943    4.7513 H         1 UNK         0.0000 
     34 H34        16.1803   -5.6225    2.4218 H         1 UNK         0.0000 
     35 H35        15.2376   -7.0003    2.8944 H         1 UNK         0.0000 
     36 H36        14.4183   -5.6311    0.8642 H         1 UNK         0.0000 
     37 H37        12.3776   -5.8170    3.1448 H         1 UNK         0.0000 
     38 H38        11.9279   -7.9184    4.0017 H         1 UNK         0.0000 
     39 H39        12.0698  -10.3730    3.8508 H         1 UNK         0.0000 
     40 H40        12.9571  -11.4450    1.8081 H         1 UNK         0.0000 
     41 H41        13.7008  -10.0609   -0.1014 H         1 UNK         0.0000 
     42 H42        13.5635   -7.6082    0.0379 H         1 UNK         0.0000 
     43 H43        10.7857   -5.9114    1.3751 H         1 UNK         0.0000 
     44 H44         9.9547   -4.3494   -0.3318 H         1 UNK         0.0000 
     45 H45        10.0333   -2.0723   -1.2046 H         1 UNK         0.0000 
     46 H46        13.6741   -1.3662    0.9573 H         1 UNK         0.0000 
     47 H47        14.9381   -3.4355    1.5965 H         1 UNK         0.0000 
     48 H48        13.5054   -4.5515    6.4618 H         1 UNK         0.0000 
@<TRIPOS>BOND
     1    1    2 1    
     2    1   27 1    
     3    1   28 1    
     4    1   48 1    
     5    2    3 1    
     6    2   29 1    
     7    2   30 1    
     8    3    4 1    
     9    3   26 1    
    10    3   31 1    
    11    4    5 1    
    12    4   32 1    
    13    4   33 1    
    14    5    6 1    
    15    5   34 1    
    16    5   35 1    
    17    6    7 1    
    18    6   25 1    
    19    6   36 1    
    20    7    8 1    
    21    7   14 1    
    22    7   37 1    
    23    8    9 ar   
    24    8   13 ar   
    25    9   10 ar   
    26    9   38 1    
    27   10   11 ar   
    28   10   39 1    
    29   11   12 ar   
    30   11   40 1    
    31   12   13 ar   
    32   12   41 1    
    33   13   42 1    
    34   14   15 1    
    35   14   43 1    
    36   15   16 ar   
    37   15   24 ar   
    38   16   17 ar   
    39   16   44 1    
    40   17   18 ar   
    41   17   45 1    
    42   18   19 1    
    43   18   23 ar   
    44   19   20 1    
    45   19   21 1    
    46   19   22 1    
    47   23   24 ar   
    48   23   46 1    
    49   24   25 1    
    50   25   26 1    
    51   25   47 1    
@<TRIPOS>SUBSTRUCTURE
     1 UNK         1 GROUP             0       ****    0 ROOT    
