@<TRIPOS>MOLECULE
CHEMBL1089393
39   42    1
SMALL
USER_CHARGES


@<TRIPOS>ATOM
      1 C1         14.8893   -3.7981    4.1945 C.3       1 UNK         0.0000 
      2 C2         15.0804   -5.3249    4.2412 C.3       1 UNK         0.0000 
      3 C3         15.2239   -5.9068    2.8287 C.3       1 UNK         0.0000 
      4 C4         14.1049   -5.4146    1.8817 C.3       1 UNK         0.0000 
      5 C5         12.7106   -6.0702    2.1171 C.3       1 UNK         0.0000 
      6 C6         12.7580   -7.5939    2.0347 C.ar      1 UNK         0.0000 
      7 C7         12.3194   -8.3766    3.1039 C.ar      1 UNK         0.0000 
      8 C8         12.3978   -9.7673    3.0196 C.ar      1 UNK         0.0000 
      9 C9         12.9042  -10.3679    1.8692 C.ar      1 UNK         0.0000 
     10 C10        13.3260   -9.5937    0.7962 C.ar      1 UNK         0.0000 
     11 C11        13.2507   -8.2088    0.8795 C.ar      1 UNK         0.0000 
     12 N12        11.7473   -5.5319    1.1616 N.pl3     1 UNK         0.0000 
     13 C13        11.7944   -4.1869    0.7523 C.ar      1 UNK         0.0000 
     14 C14        10.7727   -3.7107   -0.0610 C.ar      1 UNK         0.0000 
     15 C15        10.8032   -2.4026   -0.5353 C.ar      1 UNK         0.0000 
     16 C16        11.8552   -1.5670   -0.1635 C.ar      1 UNK         0.0000 
     17 Cl17       11.9379    0.0314   -0.7672 Cl        1 UNK         0.0000 
     18 C18        12.8564   -2.0281    0.6785 C.ar      1 UNK         0.0000 
     19 C19        12.8661   -3.3474    1.1339 C.ar      1 UNK         0.0000 
     20 C20        14.0119   -3.8725    1.9814 C.3       1 UNK         0.0000 
     21 O21        13.8062   -3.4544    3.3298 O.3       1 UNK         0.0000 
     22 H22        15.8089   -3.3291    3.8337 H         1 UNK         0.0000 
     23 H23        14.2305   -5.7850    4.7470 H         1 UNK         0.0000 
     24 H24        15.9612   -5.5785    4.8331 H         1 UNK         0.0000 
     25 H25        15.2499   -6.9950    2.8822 H         1 UNK         0.0000 
     26 H26        16.1888   -5.6094    2.4116 H         1 UNK         0.0000 
     27 H27        14.4180   -5.6334    0.8605 H         1 UNK         0.0000 
     28 H28        12.3624   -5.8151    3.1221 H         1 UNK         0.0000 
     29 H29        11.9273   -7.9173    3.9994 H         1 UNK         0.0000 
     30 H30        12.0644  -10.3748    3.8484 H         1 UNK         0.0000 
     31 H31        12.9482  -11.4459    1.8023 H         1 UNK         0.0000 
     32 H32        13.6939  -10.0609   -0.1057 H         1 UNK         0.0000 
     33 H33        13.5643   -7.6077    0.0384 H         1 UNK         0.0000 
     34 H34        10.9613   -6.1290    0.9493 H         1 UNK         0.0000 
     35 H35         9.9479   -4.3538   -0.3413 H         1 UNK         0.0000 
     36 H36        10.0267   -2.0394   -1.1925 H         1 UNK         0.0000 
     37 H37        13.6764   -1.3643    0.9323 H         1 UNK         0.0000 
     38 H38        14.9419   -3.4369    1.6042 H         1 UNK         0.0000 
     39 H39        14.7142   -3.3943    5.1913 H         1 UNK         0.0000 
@<TRIPOS>BOND
     1    1    2 1    
     2    1   21 1    
     3    1   22 1    
     4    1   39 1    
     5    2    3 1    
     6    2   23 1    
     7    2   24 1    
     8    3    4 1    
     9    3   25 1    
    10    3   26 1    
    11    4    5 1    
    12    4   20 1    
    13    4   27 1    
    14    5    6 1    
    15    5   12 1    
    16    5   28 1    
    17    6    7 ar   
    18    6   11 ar   
    19    7    8 ar   
    20    7   29 1    
    21    8    9 ar   
    22    8   30 1    
    23    9   10 ar   
    24    9   31 1    
    25   10   11 ar   
    26   10   32 1    
    27   11   33 1    
    28   12   13 1    
    29   12   34 1    
    30   13   14 ar   
    31   13   19 ar   
    32   14   15 ar   
    33   14   35 1    
    34   15   16 ar   
    35   15   36 1    
    36   16   17 1    
    37   16   18 ar   
    38   18   19 ar   
    39   18   37 1    
    40   19   20 1    
    41   20   21 1    
    42   20   38 1    
@<TRIPOS>SUBSTRUCTURE
     1 UNK         1 GROUP             0       ****    0 ROOT    
