@<TRIPOS>MOLECULE
CHEMBL1078998
48   51    1
SMALL
USER_CHARGES


@<TRIPOS>ATOM
      1 C1         12.7976    0.8124    0.0757 C.3       1 UNK         0.0000 
      2 C2         11.9223   -0.1613   -0.7525 C.3       1 UNK         0.0000 
      3 C3         12.4837   -0.2199   -2.1743 C.3       1 UNK         0.0000 
      4 C4         10.4601    0.3453   -0.8043 C.3       1 UNK         0.0000 
      5 C5         11.8888   -1.5853   -0.1835 C.ar      1 UNK         0.0000 
      6 C6         10.8508   -2.4597   -0.5444 C.ar      1 UNK         0.0000 
      7 C7         10.7949   -3.7505   -0.0484 C.ar      1 UNK         0.0000 
      8 C8         11.8123   -4.2146    0.7836 C.ar      1 UNK         0.0000 
      9 C9         12.8780   -3.3664    1.1426 C.ar      1 UNK         0.0000 
     10 C10        12.8759   -2.0519    0.6772 C.ar      1 UNK         0.0000 
     11 C11        14.0261   -3.8755    1.9883 C.3       1 UNK         0.0000 
     12 O12        13.8055   -3.4421    3.3329 O.3       1 UNK         0.0000 
     13 C13        14.8759   -3.7853    4.2185 C.3       1 UNK         0.0000 
     14 C14        15.0685   -5.3210    4.2539 C.3       1 UNK         0.0000 
     15 C15        15.2293   -5.8998    2.8448 C.3       1 UNK         0.0000 
     16 C16        14.1243   -5.4049    1.8889 C.3       1 UNK         0.0000 
     17 C17        12.7346   -6.0749    2.1322 C.3       1 UNK         0.0000 
     18 C18        12.7930   -7.5766    1.9454 C.2       1 UNK         0.0000 
     19 C19        12.2219   -8.5635    2.7386 C.2       1 UNK         0.0000 
     20 C20        12.4438   -9.8621    2.2888 C.2       1 UNK         0.0000 
     21 C21        13.1981   -9.8931    1.1291 C.2       1 UNK         0.0000 
     22 S22        13.6519   -8.2955    0.6241 S.3       1 UNK         0.0000 
     23 N23        11.7340   -5.5417    1.2135 N.pl3     1 UNK         0.0000 
     24 H24        12.8648    1.8235   -0.3318 H         1 UNK         0.0000 
     25 H25        13.7971    0.4041    0.0942 H         1 UNK         0.0000 
     26 H26        12.5322    0.8833    1.1341 H         1 UNK         0.0000 
     27 H27        12.5385    0.7348   -2.6951 H         1 UNK         0.0000 
     28 H28        11.7899   -0.8645   -2.7036 H         1 UNK         0.0000 
     29 H29        13.4739   -0.6659   -2.2106 H         1 UNK         0.0000 
     30 H30         9.7744   -0.1972   -1.4501 H         1 UNK         0.0000 
     31 H31        10.2698    1.3637   -1.1111 H         1 UNK         0.0000 
     32 H32        10.1339    0.2754    0.2174 H         1 UNK         0.0000 
     33 H33        10.0622   -2.1793   -1.2124 H         1 UNK         0.0000 
     34 H34         9.9663   -4.3825   -0.3261 H         1 UNK         0.0000 
     35 H35        13.7100   -1.4444    0.9812 H         1 UNK         0.0000 
     36 H36        14.9558   -3.4395    1.6104 H         1 UNK         0.0000 
     37 H37        15.7951   -3.3212    3.8743 H         1 UNK         0.0000 
     38 H38        14.6645   -3.3979    5.2121 H         1 UNK         0.0000 
     39 H39        15.9431   -5.5680    4.8576 H         1 UNK         0.0000 
     40 H40        14.2113   -5.7762    4.7508 H         1 UNK         0.0000 
     41 H41        16.1982   -5.6115    2.4315 H         1 UNK         0.0000 
     42 H42        15.2512   -6.9867    2.8952 H         1 UNK         0.0000 
     43 H43        14.4370   -5.6167    0.8661 H         1 UNK         0.0000 
     44 H44        12.3917   -5.8158    3.1334 H         1 UNK         0.0000 
     45 H45        11.6528   -8.3432    3.6240 H         1 UNK         0.0000 
     46 H46        12.0628  -10.7452    2.7870 H         1 UNK         0.0000 
     47 H47        13.5002  -10.7531    0.5568 H         1 UNK         0.0000 
     48 H48        10.8774   -6.0654    1.1650 H         1 UNK         0.0000 
@<TRIPOS>BOND
     1    1    2 1    
     2    1   24 1    
     3    1   25 1    
     4    1   26 1    
     5    2    3 1    
     6    2    4 1    
     7    2    5 1    
     8    3   27 1    
     9    3   28 1    
    10    3   29 1    
    11    4   30 1    
    12    4   31 1    
    13    4   32 1    
    14    5    6 ar   
    15    5   10 ar   
    16    6    7 ar   
    17    6   33 1    
    18    7    8 ar   
    19    7   34 1    
    20    8    9 ar   
    21    8   23 1    
    22    9   10 ar   
    23    9   11 1    
    24   10   35 1    
    25   11   12 1    
    26   11   16 1    
    27   11   36 1    
    28   12   13 1    
    29   13   14 1    
    30   13   37 1    
    31   13   38 1    
    32   14   15 1    
    33   14   39 1    
    34   14   40 1    
    35   15   16 1    
    36   15   41 1    
    37   15   42 1    
    38   16   17 1    
    39   16   43 1    
    40   17   18 1    
    41   17   23 1    
    42   17   44 1    
    43   18   19 2    
    44   18   22 1    
    45   19   20 1    
    46   19   45 1    
    47   20   21 2    
    48   20   46 1    
    49   21   22 1    
    50   21   47 1    
    51   23   48 1    
@<TRIPOS>SUBSTRUCTURE
     1 UNK         1 GROUP             0       ****    0 ROOT    
