@<TRIPOS>MOLECULE
CHEMBL1078774
52   55    1
SMALL
USER_CHARGES


@<TRIPOS>ATOM
      1 C1         12.8146    0.8080    0.0689 C.3       1 UNK         0.0000 
      2 C2         11.9194   -0.1474   -0.7542 C.3       1 UNK         0.0000 
      3 C3         10.4685    0.3660   -0.7781 C.3       1 UNK         0.0000 
      4 C4         12.4753   -0.2208   -2.1781 C.3       1 UNK         0.0000 
      5 C5         11.8886   -1.5790   -0.1851 C.ar      1 UNK         0.0000 
      6 C6         10.8516   -2.4541   -0.5469 C.ar      1 UNK         0.0000 
      7 C7         10.7947   -3.7435   -0.0550 C.ar      1 UNK         0.0000 
      8 C8         11.8117   -4.2036    0.7644 C.ar      1 UNK         0.0000 
      9 C9         12.8807   -3.3692    1.1329 C.ar      1 UNK         0.0000 
     10 C10        12.8820   -2.0552    0.6763 C.ar      1 UNK         0.0000 
     11 C11        14.0286   -3.8741    1.9864 C.3       1 UNK         0.0000 
     12 O12        13.8076   -3.4485    3.3326 O.3       1 UNK         0.0000 
     13 C13        14.8758   -3.7894    4.2165 C.3       1 UNK         0.0000 
     14 C14        15.0715   -5.3181    4.2567 C.3       1 UNK         0.0000 
     15 C15        15.2314   -5.9009    2.8436 C.3       1 UNK         0.0000 
     16 C16        14.1181   -5.4079    1.8901 C.3       1 UNK         0.0000 
     17 C17        12.7185   -6.0488    2.1265 C.3       1 UNK         0.0000 
     18 C18        12.7612   -7.5479    2.0351 C.ar      1 UNK         0.0000 
     19 C19        13.2453   -8.1893    0.8854 C.ar      1 UNK         0.0000 
     20 C20        13.3212   -9.5776    0.8297 C.ar      1 UNK         0.0000 
     21 C21        12.9274  -10.3120    1.9477 C.ar      1 UNK         0.0000 
     22 O22        12.9755  -11.6650    2.0910 O.3       1 UNK         0.0000 
     23 C23        12.4304   -9.6686    3.0444 C.ar      1 UNK         0.0000 
     24 F24        12.0577  -10.4439    4.0695 F         1 UNK         0.0000 
     25 C25        12.3226   -8.3021    3.1210 C.ar      1 UNK         0.0000 
     26 N26        11.7434   -5.5361    1.1782 N.pl3     1 UNK         0.0000 
     27 H27        12.5325    0.8833    1.1150 H         1 UNK         0.0000 
     28 H28        12.8684    1.8169   -0.3389 H         1 UNK         0.0000 
     29 H29        13.8143    0.4106    0.0939 H         1 UNK         0.0000 
     30 H30        10.1312    0.3291    0.2282 H         1 UNK         0.0000 
     31 H31         9.7854   -0.1994   -1.3984 H         1 UNK         0.0000 
     32 H32        10.2936    1.3645   -1.1331 H         1 UNK         0.0000 
     33 H33        13.4726   -0.6589   -2.2247 H         1 UNK         0.0000 
     34 H34        12.5251    0.7329   -2.6948 H         1 UNK         0.0000 
     35 H35        11.7885   -0.8617   -2.7053 H         1 UNK         0.0000 
     36 H36        10.0577   -2.1640   -1.2118 H         1 UNK         0.0000 
     37 H37         9.9636   -4.3765   -0.3287 H         1 UNK         0.0000 
     38 H38        13.7110   -1.4397    0.9847 H         1 UNK         0.0000 
     39 H39        14.9568   -3.4397    1.6082 H         1 UNK         0.0000 
     40 H40        15.7982   -3.3159    3.8733 H         1 UNK         0.0000 
     41 H41        14.6645   -3.3991    5.2118 H         1 UNK         0.0000 
     42 H42        15.9448   -5.5693    4.8582 H         1 UNK         0.0000 
     43 H43        14.2132   -5.7780    4.7478 H         1 UNK         0.0000 
     44 H44        16.2000   -5.6073    2.4333 H         1 UNK         0.0000 
     45 H45        15.2545   -6.9886    2.8964 H         1 UNK         0.0000 
     46 H46        14.4360   -5.6292    0.8705 H         1 UNK         0.0000 
     47 H47        12.3626   -5.7833    3.1259 H         1 UNK         0.0000 
     48 H48        13.5633   -7.5865    0.0421 H         1 UNK         0.0000 
     49 H49        13.6945  -10.0446   -0.0712 H         1 UNK         0.0000 
     50 H50        13.1617  -12.2032    1.3104 H         1 UNK         0.0000 
     51 H51        11.9305   -7.8479    4.0169 H         1 UNK         0.0000 
     52 H52        10.8870   -6.0695    1.1050 H         1 UNK         0.0000 
@<TRIPOS>BOND
     1    1    2 1    
     2    1   27 1    
     3    1   28 1    
     4    1   29 1    
     5    2    3 1    
     6    2    4 1    
     7    2    5 1    
     8    3   30 1    
     9    3   31 1    
    10    3   32 1    
    11    4   33 1    
    12    4   34 1    
    13    4   35 1    
    14    5    6 ar   
    15    5   10 ar   
    16    6    7 ar   
    17    6   36 1    
    18    7    8 ar   
    19    7   37 1    
    20    8    9 ar   
    21    8   26 1    
    22    9   10 ar   
    23    9   11 1    
    24   10   38 1    
    25   11   12 1    
    26   11   16 1    
    27   11   39 1    
    28   12   13 1    
    29   13   14 1    
    30   13   40 1    
    31   13   41 1    
    32   14   15 1    
    33   14   42 1    
    34   14   43 1    
    35   15   16 1    
    36   15   44 1    
    37   15   45 1    
    38   16   17 1    
    39   16   46 1    
    40   17   18 1    
    41   17   26 1    
    42   17   47 1    
    43   18   19 ar   
    44   18   25 ar   
    45   19   20 ar   
    46   19   48 1    
    47   20   21 ar   
    48   20   49 1    
    49   21   22 1    
    50   21   23 ar   
    51   22   50 1    
    52   23   24 1    
    53   23   25 ar   
    54   25   51 1    
    55   26   52 1    
@<TRIPOS>SUBSTRUCTURE
     1 UNK         1 GROUP             0       ****    0 ROOT    
