@<TRIPOS>MOLECULE
CHEMBL1084431
71   75    1
SMALL
USER_CHARGES


@<TRIPOS>ATOM
      1 C1         20.4061   -3.7657    7.9254 C.3       1 UNK         0.0000 
      2 C2         18.9124   -3.9931    7.7765 C.ar      1 UNK         0.0000 
      3 C3         18.0258   -2.9250    7.9026 C.ar      1 UNK         0.0000 
      4 C4         16.6577   -3.1320    7.7478 C.ar      1 UNK         0.0000 
      5 C5         16.1648   -4.4081    7.4449 C.ar      1 UNK         0.0000 
      6 C6         14.6878   -4.6643    7.2329 C.2       1 UNK         0.0000 
      7 O7         14.1939   -5.6634    7.7631 O.2       1 UNK         0.0000 
      8 N8         13.9487   -3.8243    6.4460 N.am      1 UNK         0.0000 
      9 C9         12.4795   -4.0242    6.4012 C.3       1 UNK         0.0000 
     10 C10        11.6019   -2.8223    6.0038 C.3       1 UNK         0.0000 
     11 N11        11.3321   -2.8831    4.4934 N.4       1 UNK         0.0000 
     12 C12        14.5613   -2.9978    5.3800 C.3       1 UNK         0.0000 
     13 C13        14.7961   -3.6692    4.0001 C.3       1 UNK         0.0000 
     14 C14        15.0811   -5.1931    4.0309 C.3       1 UNK         0.0000 
     15 C15        15.2403   -5.7746    2.6172 C.3       1 UNK         0.0000 
     16 C16        14.1077   -5.3260    1.6628 C.3       1 UNK         0.0000 
     17 C17        12.7413   -6.0318    1.9021 C.3       1 UNK         0.0000 
     18 C18        12.8422   -7.5568    1.8513 C.ar      1 UNK         0.0000 
     19 C19        12.4533   -8.3229    2.9526 C.ar      1 UNK         0.0000 
     20 C20        12.5253   -9.7125    2.8926 C.ar      1 UNK         0.0000 
     21 C21        12.9477  -10.3381    1.7271 C.ar      1 UNK         0.0000 
     22 C22        13.3353   -9.5811    0.6254 C.ar      1 UNK         0.0000 
     23 C23        13.3108   -8.1934    0.6978 C.ar      1 UNK         0.0000 
     24 N24        11.7319   -5.5273    0.9660 N.pl3     1 UNK         0.0000 
     25 C25        11.7370   -4.1806    0.5580 C.ar      1 UNK         0.0000 
     26 C26        10.6892   -3.7238   -0.2418 C.ar      1 UNK         0.0000 
     27 C27        10.6688   -2.4058   -0.6876 C.ar      1 UNK         0.0000 
     28 C28        11.6907   -1.5255   -0.3218 C.ar      1 UNK         0.0000 
     29 C29        11.7117   -0.0976   -0.8567 C.3       1 UNK         0.0000 
     30 F30        12.2908    0.7357    0.0080 F         1 UNK         0.0000 
     31 F31        12.4102   -0.0772   -1.9917 F         1 UNK         0.0000 
     32 F32        10.4766    0.3334   -1.1054 F         1 UNK         0.0000 
     33 C33        12.7176   -1.9787    0.5071 C.ar      1 UNK         0.0000 
     34 C34        12.7770   -3.3077    0.9323 C.ar      1 UNK         0.0000 
     35 C35        13.9477   -3.7906    1.7717 C.3       1 UNK         0.0000 
     36 O36        13.6969   -3.4009    3.1267 O.3       1 UNK         0.0000 
     37 C37        17.0605   -5.4838    7.3765 C.ar      1 UNK         0.0000 
     38 C38        18.4268   -5.2802    7.5326 C.ar      1 UNK         0.0000 
     39 H39        20.8966   -4.6385    8.3533 H         1 UNK         0.0000 
     40 H40        20.6157   -2.9273    8.5942 H         1 UNK         0.0000 
     41 H41        20.8541   -3.5552    6.9542 H         1 UNK         0.0000 
     42 H42        18.3892   -1.9293    8.1145 H         1 UNK         0.0000 
     43 H43        15.9889   -2.2922    7.8543 H         1 UNK         0.0000 
     44 H44        12.2659   -4.8647    5.7368 H         1 UNK         0.0000 
     45 H45        12.1472   -4.3462    7.3894 H         1 UNK         0.0000 
     46 H46        10.6031   -2.8770    6.4480 H         1 UNK         0.0000 
     47 H47        12.0431   -1.8456    6.2206 H         1 UNK         0.0000 
     48 H48        10.7298   -2.1320    4.1414 H         1 UNK         0.0000 
     49 H49        10.8553   -3.7530    4.2874 H         1 UNK         0.0000 
     50 H50        13.9811   -2.0922    5.2324 H         1 UNK         0.0000 
     51 H51        15.5298   -2.6261    5.6945 H         1 UNK         0.0000 
     52 H52        15.6700   -3.1564    3.5927 H         1 UNK         0.0000 
     53 H53        15.9914   -5.3897    4.6001 H         1 UNK         0.0000 
     54 H54        14.2785   -5.7188    4.5518 H         1 UNK         0.0000 
     55 H55        16.1963   -5.4430    2.2066 H         1 UNK         0.0000 
     56 H56        15.3123   -6.8623    2.6711 H         1 UNK         0.0000 
     57 H57        14.4375   -5.5427    0.6447 H         1 UNK         0.0000 
     58 H58        12.3821   -5.7716    2.9017 H         1 UNK         0.0000 
     59 H59        12.0964   -7.8495    3.8566 H         1 UNK         0.0000 
     60 H60        12.2295  -10.3081    3.7462 H         1 UNK         0.0000 
     61 H61        12.9787  -11.4176    1.6762 H         1 UNK         0.0000 
     62 H62        13.6722  -10.0595   -0.2817 H         1 UNK         0.0000 
     63 H63        13.6137   -7.6139   -0.1606 H         1 UNK         0.0000 
     64 H64        10.8780   -6.0664    0.9477 H         1 UNK         0.0000 
     65 H65         9.8977   -4.3963   -0.5354 H         1 UNK         0.0000 
     66 H66         9.8632   -2.0699   -1.3224 H         1 UNK         0.0000 
     67 H67        13.5136   -1.3007    0.7868 H         1 UNK         0.0000 
     68 H68        14.8593   -3.3099    1.4053 H         1 UNK         0.0000 
     69 H69        16.7009   -6.4861    7.1830 H         1 UNK         0.0000 
     70 H70        19.1055   -6.1201    7.4605 H         1 UNK         0.0000 
     71 H71        12.1955   -2.8872    3.9543 H         1 UNK         0.0000 
@<TRIPOS>BOND
     1    1    2 1    
     2    1   39 1    
     3    1   40 1    
     4    1   41 1    
     5    2    3 ar   
     6    2   38 ar   
     7    3    4 ar   
     8    3   42 1    
     9    4    5 ar   
    10    4   43 1    
    11    5    6 1    
    12    5   37 ar   
    13    6    7 2    
    14    6    8 am   BACKBONE|DICT|INTERRES
    15    8    9 1    
    16    8   12 1    
    17    9   10 1    
    18    9   44 1    
    19    9   45 1    
    20   10   11 1    
    21   10   46 1    
    22   10   47 1    
    23   11   48 1    
    24   11   49 1    
    25   11   71 1    
    26   12   13 1    
    27   12   50 1    
    28   12   51 1    
    29   13   14 1    
    30   13   36 1    
    31   13   52 1    
    32   14   15 1    
    33   14   53 1    
    34   14   54 1    
    35   15   16 1    
    36   15   55 1    
    37   15   56 1    
    38   16   17 1    
    39   16   35 1    
    40   16   57 1    
    41   17   18 1    
    42   17   24 1    
    43   17   58 1    
    44   18   19 ar   
    45   18   23 ar   
    46   19   20 ar   
    47   19   59 1    
    48   20   21 ar   
    49   20   60 1    
    50   21   22 ar   
    51   21   61 1    
    52   22   23 ar   
    53   22   62 1    
    54   23   63 1    
    55   24   25 1    
    56   24   64 1    
    57   25   26 ar   
    58   25   34 ar   
    59   26   27 ar   
    60   26   65 1    
    61   27   28 ar   
    62   27   66 1    
    63   28   29 1    
    64   28   33 ar   
    65   29   30 1    
    66   29   31 1    
    67   29   32 1    
    68   33   34 ar   
    69   33   67 1    
    70   34   35 1    
    71   35   36 1    
    72   35   68 1    
    73   37   38 ar   
    74   37   69 1    
    75   38   70 1    
@<TRIPOS>SUBSTRUCTURE
     1 UNK         1 GROUP             0       ****    0 ROOT    
