@<TRIPOS>MOLECULE
CHEMBL1083836
55   59    1
SMALL
USER_CHARGES


@<TRIPOS>ATOM
      1 C1         15.2821   -4.6350    7.5364 C.3       1 UNK         0.0000 
      2 N2         14.1932   -3.9714    6.6802 N.4       1 UNK         0.0000 
      3 C3         14.7173   -3.0545    5.5540 C.3       1 UNK         0.0000 
      4 C4         14.9175   -3.7786    4.1872 C.3       1 UNK         0.0000 
      5 C5         15.0874   -5.3228    4.2360 C.3       1 UNK         0.0000 
      6 C6         15.2206   -5.9197    2.8310 C.3       1 UNK         0.0000 
      7 C7         14.1088   -5.4312    1.8792 C.3       1 UNK         0.0000 
      8 C8         12.7176   -6.0847    2.1226 C.3       1 UNK         0.0000 
      9 C9         12.7637   -7.6040    2.0348 C.ar      1 UNK         0.0000 
     10 C10        13.2571   -8.2154    0.8775 C.ar      1 UNK         0.0000 
     11 C11        13.3310   -9.5999    0.7947 C.ar      1 UNK         0.0000 
     12 C12        12.9090  -10.3740    1.8712 C.ar      1 UNK         0.0000 
     13 C13        12.4010   -9.7717    3.0201 C.ar      1 UNK         0.0000 
     14 C14        12.3216   -8.3846    3.1028 C.ar      1 UNK         0.0000 
     15 N15        11.7445   -5.5529    1.1675 N.pl3     1 UNK         0.0000 
     16 C16        11.7783   -4.2163    0.7637 C.ar      1 UNK         0.0000 
     17 C17        10.7564   -3.7313   -0.0600 C.ar      1 UNK         0.0000 
     18 C18        10.7840   -2.4218   -0.5217 C.ar      1 UNK         0.0000 
     19 C19        11.8218   -1.5818   -0.1229 C.ar      1 UNK         0.0000 
     20 C20        11.8894   -0.1791   -0.6884 C.3       1 UNK         0.0000 
     21 C21        12.9842    0.7528   -0.3261 C.3       1 UNK         0.0000 
     22 C22        12.9393    0.1563   -1.7215 C.3       1 UNK         0.0000 
     23 C23        12.8260   -2.0751    0.7222 C.ar      1 UNK         0.0000 
     24 C24        12.8412   -3.3893    1.1509 C.ar      1 UNK         0.0000 
     25 C25        14.0126   -3.8975    1.9757 C.3       1 UNK         0.0000 
     26 O26        13.8215   -3.4695    3.3243 O.3       1 UNK         0.0000 
     27 H27        14.7432   -5.2224    8.2879 H         1 UNK         0.0000 
     28 H28        15.8954   -3.8612    8.0164 H         1 UNK         0.0000 
     29 H29        15.9091   -5.2980    6.9311 H         1 UNK         0.0000 
     30 H30        13.6118   -3.4115    7.2986 H         1 UNK         0.0000 
     31 H31        15.6259   -2.5534    5.9128 H         1 UNK         0.0000 
     32 H32        13.9360   -2.2914    5.4675 H         1 UNK         0.0000 
     33 H33        15.8232   -3.3411    3.7607 H         1 UNK         0.0000 
     34 H34        14.2483   -5.7949    4.7546 H         1 UNK         0.0000 
     35 H35        15.9900   -5.5952    4.7784 H         1 UNK         0.0000 
     36 H36        16.1879   -5.6256    2.4157 H         1 UNK         0.0000 
     37 H37        15.2426   -7.0073    2.8962 H         1 UNK         0.0000 
     38 H38        14.4245   -5.6435    0.8559 H         1 UNK         0.0000 
     39 H39        12.3752   -5.8170    3.1268 H         1 UNK         0.0000 
     40 H40        13.5704   -7.6127    0.0382 H         1 UNK         0.0000 
     41 H41        13.6962  -10.0654   -0.1078 H         1 UNK         0.0000 
     42 H42        12.9524  -11.4515    1.8058 H         1 UNK         0.0000 
     43 H43        12.0676  -10.3758    3.8514 H         1 UNK         0.0000 
     44 H44        11.9274   -7.9213    3.9964 H         1 UNK         0.0000 
     45 H45        11.1139   -6.2188    0.7581 H         1 UNK         0.0000 
     46 H46         9.9362   -4.3709   -0.3457 H         1 UNK         0.0000 
     47 H47        10.0223   -2.0493   -1.1963 H         1 UNK         0.0000 
     48 H48        10.9154    0.2829   -0.8331 H         1 UNK         0.0000 
     49 H49        12.8587    1.8276   -0.1827 H         1 UNK         0.0000 
     50 H50        13.7896    0.3985    0.3059 H         1 UNK         0.0000 
     51 H51        13.6590   -0.6004   -2.0043 H         1 UNK         0.0000 
     52 H52        12.8015    0.8402   -2.5636 H         1 UNK         0.0000 
     53 H53        13.6855   -1.4988    1.0279 H         1 UNK         0.0000 
     54 H54        14.9341   -3.4492    1.5902 H         1 UNK         0.0000 
     55 H55        13.5724   -4.6652    6.2709 H         1 UNK         0.0000 
@<TRIPOS>BOND
     1    1    2 1    
     2    1   27 1    
     3    1   28 1    
     4    1   29 1    
     5    2    3 1    
     6    2   30 1    
     7    2   55 1    
     8    3    4 1    
     9    3   31 1    
    10    3   32 1    
    11    4    5 1    
    12    4   26 1    
    13    4   33 1    
    14    5    6 1    
    15    5   34 1    
    16    5   35 1    
    17    6    7 1    
    18    6   36 1    
    19    6   37 1    
    20    7    8 1    
    21    7   25 1    
    22    7   38 1    
    23    8    9 1    
    24    8   15 1    
    25    8   39 1    
    26    9   10 ar   
    27    9   14 ar   
    28   10   11 ar   
    29   10   40 1    
    30   11   12 ar   
    31   11   41 1    
    32   12   13 ar   
    33   12   42 1    
    34   13   14 ar   
    35   13   43 1    
    36   14   44 1    
    37   15   16 1    
    38   15   45 1    
    39   16   17 ar   
    40   16   24 ar   
    41   17   18 ar   
    42   17   46 1    
    43   18   19 ar   
    44   18   47 1    
    45   19   20 1    
    46   19   23 ar   
    47   20   21 1    
    48   20   22 1    
    49   20   48 1    
    50   21   22 1    
    51   21   49 1    
    52   21   50 1    
    53   22   51 1    
    54   22   52 1    
    55   23   24 ar   
    56   23   53 1    
    57   24   25 1    
    58   25   26 1    
    59   25   54 1    
@<TRIPOS>SUBSTRUCTURE
     1 UNK         1 GROUP             0       ****    0 ROOT    
