@<TRIPOS>MOLECULE
/home/yujie/leadopt/data/result/selection/LRRK2/lig_24.sdf:1
66   71    1
SMALL
USER_CHARGES


@<TRIPOS>ATOM
      1 Cl1         8.7805   -4.7537   16.3362 Cl        1 UNK         0.0000 
      2 C2          7.2569   -4.5622   17.1389 C.ar      1 UNK         0.0000 
      3 C3          7.1059   -3.4493   17.9691 C.ar      1 UNK         0.0000 
      4 C4          5.8728   -3.2145   18.6151 C.ar      1 UNK         0.0000 
      5 C5          5.5540   -2.0618   19.3720 C.ar      1 UNK         0.0000 
      6 N6          4.3326   -1.8391   19.9180 N.ar      1 UNK         0.0000 
      7 C7          3.4080   -2.8157   19.7362 C.ar      1 UNK         0.0000 
      8 N8          2.1429   -2.5670   20.2844 N.pl3     1 UNK         0.0000 
      9 C9          1.0149   -3.3602   20.2568 C.ar      1 UNK         0.0000 
     10 C10        -0.0921   -3.2386   21.0891 C.ar      1 UNK         0.0000 
     11 C11        -0.3907   -2.2843   22.2253 C.3       1 UNK         0.0000 
     12 N12        -0.9601   -4.2300   20.6910 N.pl3     1 UNK         0.0000 
     13 C13        -2.2871   -4.5277   21.2127 C.3       1 UNK         0.0000 
     14 C14        -2.6185   -5.9476   21.6383 C.3       1 UNK         0.0000 
     15 F15        -1.6759   -6.8893   21.5924 F         1 UNK         0.0000 
     16 F16        -3.8458   -6.4067   21.4023 F         1 UNK         0.0000 
     17 C17        -2.4636   -4.8775   22.6802 C.3       1 UNK         0.0000 
     18 N18        -0.5024   -4.9462   19.6616 N.2       1 UNK         0.0000 
     19 C19         0.6746   -4.4323   19.4111 C.ar      1 UNK         0.0000 
     20 N20         3.6142   -3.9775   19.0657 N.ar      1 UNK         0.0000 
     21 C21         4.8222   -4.1619   18.4745 C.ar      1 UNK         0.0000 
     22 C22         5.0015   -5.2808   17.6445 C.ar      1 UNK         0.0000 
     23 C23         6.1973   -5.4720   16.9438 C.ar      1 UNK         0.0000 
     24 C24         6.3156   -6.6290   15.9327 C.3       1 UNK         0.0000 
     25 C25         5.3680   -7.8343   16.1861 C.3       1 UNK         0.0000 
     26 C26         5.5668   -8.9600   15.1563 C.3       1 UNK         0.0000 
     27 N27         5.3623   -8.3789   13.7444 N.4       1 UNK         0.0000 
     28 C28         5.2936   -9.4512   12.6141 C.3       1 UNK         0.0000 
     29 C29         6.7011  -10.0841   12.4163 C.3       1 UNK         0.0000 
     30 C30         4.2429  -10.5509   12.8511 C.3       1 UNK         0.0000 
     31 O31         3.9809  -11.0882   11.5637 O.3       1 UNK         0.0000 
     32 C32         4.0443  -10.0426   10.5987 C.3       1 UNK         0.0000 
     33 C33         4.7834   -8.8818   11.2836 C.3       1 UNK         0.0000 
     34 O34         3.9324   -7.7628   11.4844 O.3       1 UNK         0.0000 
     35 C35         6.3486   -7.2248   13.4561 C.3       1 UNK         0.0000 
     36 C36         6.1395   -6.1089   14.4911 C.3       1 UNK         0.0000 
     37 H37         5.6192   -8.5622   10.6585 H         1 UNK         0.0000 
     38 H38         7.9133   -2.7393   18.0871 H         1 UNK         0.0000 
     39 H39         6.2942   -1.2848   19.5105 H         1 UNK         0.0000 
     40 H40         2.0995   -1.6794   20.7617 H         1 UNK         0.0000 
     41 H41         0.3829   -1.5239   22.3133 H         1 UNK         0.0000 
     42 H42        -1.3402   -1.7654   22.0846 H         1 UNK         0.0000 
     43 H43        -0.4375   -2.7966   23.1850 H         1 UNK         0.0000 
     44 H44        -3.0676   -3.9305   20.7419 H         1 UNK         0.0000 
     45 H45        -3.3500   -4.5185   23.2029 H         1 UNK         0.0000 
     46 H46        -1.5941   -4.9246   23.3378 H         1 UNK         0.0000 
     47 H47         1.2779   -4.8282   18.6088 H         1 UNK         0.0000 
     48 H48         4.1610   -5.9469   17.5338 H         1 UNK         0.0000 
     49 H49         7.3339   -7.0053   16.0532 H         1 UNK         0.0000 
     50 H50         5.5351   -8.2504   17.1804 H         1 UNK         0.0000 
     51 H51         4.3219   -7.5325   16.1234 H         1 UNK         0.0000 
     52 H52         6.5795   -9.3620   15.1869 H         1 UNK         0.0000 
     53 H53         4.8522   -9.7690   15.3113 H         1 UNK         0.0000 
     54 H54         6.6783  -10.8733   11.6644 H         1 UNK         0.0000 
     55 H55         7.4446   -9.3624   12.0775 H         1 UNK         0.0000 
     56 H56         7.0807  -10.5385   13.3267 H         1 UNK         0.0000 
     57 H57         4.5775  -11.3376   13.5278 H         1 UNK         0.0000 
     58 H58         3.3089  -10.1693   13.2689 H         1 UNK         0.0000 
     59 H59         3.0330   -9.7542   10.3023 H         1 UNK         0.0000 
     60 H60         4.5863  -10.3924    9.7186 H         1 UNK         0.0000 
     61 H61         4.3608   -6.9999   11.0587 H         1 UNK         0.0000 
     62 H62         7.3571   -7.6365   13.5232 H         1 UNK         0.0000 
     63 H63         6.1955   -6.8678   12.4370 H         1 UNK         0.0000 
     64 H64         5.1490   -5.6702   14.3560 H         1 UNK         0.0000 
     65 H65         6.8733   -5.3293   14.2854 H         1 UNK         0.0000 
     66 H66         4.4446   -7.9528   13.7355 H         1 UNK         0.0000 
@<TRIPOS>BOND
     1    1    2 1    
     2    2   23 ar   
     3    2    3 ar   
     4    3    4 ar   
     5    3   38 1    
     6    4   21 ar   
     7    4    5 ar   
     8    5    6 ar   
     9    5   39 1    
    10    6    7 ar   
    11    7    8 1    
    12    7   20 ar   
    13    8    9 1    
    14    8   40 1    
    15    9   19 ar   
    16    9   10 ar   
    17   10   11 1    
    18   10   12 ar   
    19   11   41 1    
    20   11   42 1    
    21   11   43 1    
    22   12   13 1    
    23   12   18 ar   
    24   13   17 1    
    25   13   14 1    
    26   13   44 1    
    27   14   15 1    
    28   14   16 1    
    29   14   17 1    
    30   17   45 1    
    31   17   46 1    
    32   18   19 ar   
    33   19   47 1    
    34   20   21 ar   
    35   21   22 ar   
    36   22   23 ar   
    37   22   48 1    
    38   23   24 1    
    39   24   36 1    
    40   24   25 1    
    41   24   49 1    
    42   25   26 1    
    43   25   50 1    
    44   25   51 1    
    45   26   27 1    
    46   26   52 1    
    47   26   53 1    
    48   27   28 1    
    49   27   35 1    
    50   27   66 1    
    51   28   33 1    
    52   28   29 1    
    53   28   30 1    
    54   29   54 1    
    55   29   55 1    
    56   29   56 1    
    57   30   31 1    
    58   30   57 1    
    59   30   58 1    
    60   31   32 1    
    61   32   33 1    
    62   32   59 1    
    63   32   60 1    
    64   33   37 1    
    65   33   34 1    
    66   34   61 1    
    67   35   36 1    
    68   35   62 1    
    69   35   63 1    
    70   36   64 1    
    71   36   65 1    
@<TRIPOS>SUBSTRUCTURE
     1 UNK         1 GROUP             0       ****    0 ROOT    
