@<TRIPOS>MOLECULE
/home/yujie/leadopt/data/result/selection/LRRK2/lig_19.sdf:1
55   60    1
SMALL
USER_CHARGES


@<TRIPOS>ATOM
      1 Cl1         8.7641   -4.4992   15.9179 Cl        1 UNK         0.0000 
      2 C2          7.2884   -4.4318   16.8237 C.ar      1 UNK         0.0000 
      3 C3          7.1564   -3.3872   17.7380 C.ar      1 UNK         0.0000 
      4 C4          5.9475   -3.2142   18.4441 C.ar      1 UNK         0.0000 
      5 C5          5.6581   -2.1122   19.2798 C.ar      1 UNK         0.0000 
      6 N6          4.4607   -1.9306   19.8856 N.ar      1 UNK         0.0000 
      7 C7          3.5301   -2.8938   19.6780 C.ar      1 UNK         0.0000 
      8 N8          2.2931   -2.6438   20.2819 N.pl3     1 UNK         0.0000 
      9 C9          1.1333   -3.3823   20.2557 C.ar      1 UNK         0.0000 
     10 C10         0.0507   -3.2327   21.1078 C.ar      1 UNK         0.0000 
     11 Cl11       -0.2044   -2.1628   22.4322 Cl        1 UNK         0.0000 
     12 N12        -0.8815   -4.1628   20.7211 N.pl3     1 UNK         0.0000 
     13 C13        -2.1826   -4.4210   21.3243 C.3       1 UNK         0.0000 
     14 C14        -3.2688   -3.3601   21.2260 C.3       1 UNK         0.0000 
     15 C15        -3.4008   -4.6396   20.4481 C.3       1 UNK         0.0000 
     16 F16        -4.3133   -5.5208   20.8546 F         1 UNK         0.0000 
     17 F17        -3.2859   -4.5630   19.1222 F         1 UNK         0.0000 
     18 N18        -0.4553   -4.9194   19.7041 N.2       1 UNK         0.0000 
     19 C19         0.7345   -4.4432   19.4211 C.ar      1 UNK         0.0000 
     20 N20         3.7069   -4.0182   18.9313 N.ar      1 UNK         0.0000 
     21 C21         4.8978   -4.1629   18.2863 C.ar      1 UNK         0.0000 
     22 C22         5.0650   -5.2293   17.3789 C.ar      1 UNK         0.0000 
     23 C23         6.2346   -5.3463   16.6169 C.ar      1 UNK         0.0000 
     24 C24         6.2817   -6.3894   15.4877 C.3       1 UNK         0.0000 
     25 C25         5.7880   -7.8034   15.8720 C.3       1 UNK         0.0000 
     26 C26         5.8998   -8.7779   14.6774 C.3       1 UNK         0.0000 
     27 N27         5.1914   -8.2960   13.4782 N.3       1 UNK         0.0000 
     28 C28         5.4126   -9.2034   12.3409 C.3       1 UNK         0.0000 
     29 C29         4.7372  -10.5852   12.4122 C.3       1 UNK         0.0000 
     30 O30         3.9054  -10.2845   11.2136 O.3       1 UNK         0.0000 
     31 C31         4.5721   -8.9629   11.0726 C.3       1 UNK         0.0000 
     32 C32         5.5819   -6.9281   13.0984 C.3       1 UNK         0.0000 
     33 C33         5.4862   -5.9155   14.2540 C.3       1 UNK         0.0000 
     34 F34         5.9334   -4.7326   13.8287 F         1 UNK         0.0000 
     35 H35         7.9552   -2.6695   17.8630 H         1 UNK         0.0000 
     36 H36         6.3996   -1.3396   19.4314 H         1 UNK         0.0000 
     37 H37         2.2911   -1.7659   20.7776 H         1 UNK         0.0000 
     38 H38        -2.1083   -4.9819   22.2562 H         1 UNK         0.0000 
     39 H39        -3.0619   -2.4351   20.6861 H         1 UNK         0.0000 
     40 H40        -3.9217   -3.1933   22.0821 H         1 UNK         0.0000 
     41 H41         1.3126   -4.8695   18.6149 H         1 UNK         0.0000 
     42 H42         4.2323   -5.9004   17.2295 H         1 UNK         0.0000 
     43 H43         7.3245   -6.5067   15.1956 H         1 UNK         0.0000 
     44 H44         6.3983   -8.2049   16.6816 H         1 UNK         0.0000 
     45 H45         4.7543   -7.8146   16.2208 H         1 UNK         0.0000 
     46 H46         5.5093   -9.7561   14.9619 H         1 UNK         0.0000 
     47 H47         6.9527   -8.9330   14.4334 H         1 UNK         0.0000 
     48 H48         6.4842   -9.2509   12.1327 H         1 UNK         0.0000 
     49 H49         5.3838  -11.4377   12.2017 H         1 UNK         0.0000 
     50 H50         4.0815  -10.7562   13.2672 H         1 UNK         0.0000 
     51 H51         3.8183   -8.1783   11.1324 H         1 UNK         0.0000 
     52 H52         5.1347   -8.9359   10.1397 H         1 UNK         0.0000 
     53 H53         4.9508   -6.5775   12.2852 H         1 UNK         0.0000 
     54 H54         6.6002   -6.9473   12.7051 H         1 UNK         0.0000 
     55 H55         4.4354   -5.7890   14.5192 H         1 UNK         0.0000 
@<TRIPOS>BOND
     1    1    2 1    
     2    2   23 ar   
     3    2    3 ar   
     4    3    4 ar   
     5    3   35 1    
     6    4   21 ar   
     7    4    5 ar   
     8    5    6 ar   
     9    5   36 1    
    10    6    7 ar   
    11    7    8 1    
    12    7   20 ar   
    13    8    9 1    
    14    8   37 1    
    15    9   19 ar   
    16    9   10 ar   
    17   10   11 1    
    18   10   12 ar   
    19   12   13 1    
    20   12   18 ar   
    21   13   15 1    
    22   13   14 1    
    23   13   38 1    
    24   14   15 1    
    25   14   39 1    
    26   14   40 1    
    27   15   16 1    
    28   15   17 1    
    29   18   19 ar   
    30   19   41 1    
    31   20   21 ar   
    32   21   22 ar   
    33   22   23 ar   
    34   22   42 1    
    35   23   24 1    
    36   24   33 1    
    37   24   25 1    
    38   24   43 1    
    39   25   26 1    
    40   25   44 1    
    41   25   45 1    
    42   26   27 1    
    43   26   46 1    
    44   26   47 1    
    45   27   28 1    
    46   27   32 1    
    47   28   31 1    
    48   28   29 1    
    49   28   48 1    
    50   29   30 1    
    51   29   49 1    
    52   29   50 1    
    53   30   31 1    
    54   31   51 1    
    55   31   52 1    
    56   32   33 1    
    57   32   53 1    
    58   32   54 1    
    59   33   34 1    
    60   33   55 1    
@<TRIPOS>SUBSTRUCTURE
     1 UNK         1 GROUP             0       ****    0 ROOT    
