@<TRIPOS>MOLECULE
/home/yujie/leadopt/data/result/selection/LRRK2/lig_6.sdf:1
49   53    1
SMALL
USER_CHARGES


@<TRIPOS>ATOM
      1 C1         -0.1636   -2.5631   21.8772 C.3       1 UNK         0.0000 
      2 C2          0.1457   -3.4794   20.7085 C.ar      1 UNK         0.0000 
      3 N3         -0.6256   -4.5592   20.2875 N.pl3     1 UNK         0.0000 
      4 C4         -1.8458   -5.1927   20.8716 C.3       1 UNK         0.0000 
      5 C5         -2.7836   -4.2866   21.7019 C.3       1 UNK         0.0000 
      6 C6         -3.6029   -3.3491   20.7971 C.3       1 UNK         0.0000 
      7 O7         -4.3456   -4.1299   19.8587 O.3       1 UNK         0.0000 
      8 C8         -3.5591   -4.9573   18.9955 C.3       1 UNK         0.0000 
      9 C9         -2.7280   -5.9458   19.8386 C.3       1 UNK         0.0000 
     10 N10        -0.0436   -5.1958   19.2568 N.2       1 UNK         0.0000 
     11 C11         1.0489   -4.5314   18.9956 C.ar      1 UNK         0.0000 
     12 C12         1.2569   -3.4607   19.8675 C.ar      1 UNK         0.0000 
     13 N13         2.3019   -2.5689   19.9369 N.pl3     1 UNK         0.0000 
     14 C14         3.6270   -2.7093   19.5077 C.ar      1 UNK         0.0000 
     15 N15         4.4344   -1.6940   19.8859 N.ar      1 UNK         0.0000 
     16 C16         5.7183   -1.7633   19.4743 C.ar      1 UNK         0.0000 
     17 C17         6.2236   -2.7984   18.6622 C.ar      1 UNK         0.0000 
     18 C18         5.2933   -3.8189   18.3016 C.ar      1 UNK         0.0000 
     19 C19         5.7162   -4.8403   17.3985 C.ar      1 UNK         0.0000 
     20 C20         4.7056   -5.8605   16.8986 C.3       1 UNK         0.0000 
     21 C21         5.0455   -7.2977   16.5678 C.3       1 UNK         0.0000 
     22 C22         4.2246   -6.9668   17.7951 C.3       1 UNK         0.0000 
     23 C23         7.0296   -4.8487   16.9255 C.ar      1 UNK         0.0000 
     24 C24         7.9349   -3.8705   17.3231 C.ar      1 UNK         0.0000 
     25 C25         7.5492   -2.8453   18.1818 C.ar      1 UNK         0.0000 
     26 N26         4.0056   -3.7856   18.7669 N.ar      1 UNK         0.0000 
     27 H27         0.6098   -1.8068   22.0086 H         1 UNK         0.0000 
     28 H28        -1.0931   -2.0117   21.7426 H         1 UNK         0.0000 
     29 H29        -0.2145   -3.1055   22.8208 H         1 UNK         0.0000 
     30 H30        -1.4262   -5.9387   21.5480 H         1 UNK         0.0000 
     31 H31        -3.4555   -4.9303   22.2702 H         1 UNK         0.0000 
     32 H32        -2.2821   -3.7772   22.5166 H         1 UNK         0.0000 
     33 H33        -4.3028   -2.7651   21.3944 H         1 UNK         0.0000 
     34 H34        -2.9604   -2.6328   20.2850 H         1 UNK         0.0000 
     35 H35        -4.2279   -5.4964   18.3235 H         1 UNK         0.0000 
     36 H36        -2.9144   -4.3427   18.3657 H         1 UNK         0.0000 
     37 H37        -2.1455   -6.6257   19.2166 H         1 UNK         0.0000 
     38 H38        -3.3790   -6.6405   20.3697 H         1 UNK         0.0000 
     39 H39         1.7045   -4.8374   18.1933 H         1 UNK         0.0000 
     40 H40         2.1697   -1.7119   20.4522 H         1 UNK         0.0000 
     41 H41         6.3707   -0.9621   19.7824 H         1 UNK         0.0000 
     42 H42         3.9464   -5.4073   16.2591 H         1 UNK         0.0000 
     43 H43         6.0723   -7.6431   16.6852 H         1 UNK         0.0000 
     44 H44         4.5534   -7.7618   15.7120 H         1 UNK         0.0000 
     45 H45         3.1495   -7.1543   17.8121 H         1 UNK         0.0000 
     46 H46         4.6743   -7.0596   18.7829 H         1 UNK         0.0000 
     47 H47         7.3508   -5.6126   16.2330 H         1 UNK         0.0000 
     48 H48         8.9477   -3.8987   16.9487 H         1 UNK         0.0000 
     49 H49         8.2522   -2.0754   18.4667 H         1 UNK         0.0000 
@<TRIPOS>BOND
     1    1    2 1    
     2    1   27 1    
     3    1   28 1    
     4    1   29 1    
     5    2    3 ar   
     6    2   12 ar   
     7    3    4 1    
     8    3   10 ar   
     9    4    9 1    
    10    4    5 1    
    11    4   30 1    
    12    5    6 1    
    13    5   31 1    
    14    5   32 1    
    15    6    7 1    
    16    6   33 1    
    17    6   34 1    
    18    7    8 1    
    19    8    9 1    
    20    8   35 1    
    21    8   36 1    
    22    9   37 1    
    23    9   38 1    
    24   10   11 ar   
    25   11   12 ar   
    26   11   39 1    
    27   12   13 1    
    28   13   14 1    
    29   13   40 1    
    30   14   26 ar   
    31   14   15 ar   
    32   15   16 ar   
    33   16   17 ar   
    34   16   41 1    
    35   17   25 ar   
    36   17   18 ar   
    37   18   19 ar   
    38   18   26 ar   
    39   19   20 1    
    40   19   23 ar   
    41   20   22 1    
    42   20   21 1    
    43   20   42 1    
    44   21   22 1    
    45   21   43 1    
    46   21   44 1    
    47   22   45 1    
    48   22   46 1    
    49   23   24 ar   
    50   23   47 1    
    51   24   25 ar   
    52   24   48 1    
    53   25   49 1    
@<TRIPOS>SUBSTRUCTURE
     1 UNK         1 GROUP             0       ****    0 ROOT    
