@<TRIPOS>MOLECULE
/home/yujie/leadopt/data/result/selection/LRRK2/lig_11.sdf:1
51   56    1
SMALL
USER_CHARGES


@<TRIPOS>ATOM
      1 N1          9.5078   -6.2593   15.1415 N.1       1 UNK         0.0000 
      2 C2          8.3879   -6.0774   15.3709 C.1       1 UNK         0.0000 
      3 C3          6.9594   -5.8440   15.6707 C.3       1 UNK         0.0000 
      4 C4          6.0604   -7.0345   15.3889 C.3       1 UNK         0.0000 
      5 C5          6.2174   -8.5156   15.2006 C.3       1 UNK         0.0000 
      6 C6          5.1377   -7.9798   16.1208 C.3       1 UNK         0.0000 
      7 C7          5.9818   -5.8374   14.4941 C.3       1 UNK         0.0000 
      8 C8          6.6867   -4.8535   16.8055 C.ar      1 UNK         0.0000 
      9 C9          5.4736   -4.8994   17.5012 C.ar      1 UNK         0.0000 
     10 C10         5.1304   -3.8841   18.4166 C.ar      1 UNK         0.0000 
     11 C11         6.0489   -2.8230   18.6508 C.ar      1 UNK         0.0000 
     12 C12         7.3121   -2.8317   18.0143 C.ar      1 UNK         0.0000 
     13 C13         7.6066   -3.8372   17.0952 C.ar      1 UNK         0.0000 
     14 C14         5.5787   -1.7879   19.4854 C.ar      1 UNK         0.0000 
     15 N15         4.3333   -1.7623   20.0151 N.ar      1 UNK         0.0000 
     16 C16         3.5334   -2.8164   19.7268 C.ar      1 UNK         0.0000 
     17 N17         2.2261   -2.7156   20.2168 N.pl3     1 UNK         0.0000 
     18 C18         1.1408   -3.5361   20.0043 C.ar      1 UNK         0.0000 
     19 C19        -0.0661   -3.5015   20.6883 C.ar      1 UNK         0.0000 
     20 Cl20       -0.5841   -2.4783   21.9749 Cl        1 UNK         0.0000 
     21 N21        -0.8581   -4.4945   20.1555 N.pl3     1 UNK         0.0000 
     22 C22        -2.2120   -4.9058   20.5856 C.3       1 UNK         0.0000 
     23 C23        -3.0951   -5.3075   19.3722 C.3       1 UNK         0.0000 
     24 C24        -4.4038   -5.9689   19.8364 C.3       1 UNK         0.0000 
     25 O25        -4.1008   -7.0820   20.6760 O.3       1 UNK         0.0000 
     26 C26        -3.4311   -6.7283   21.8845 C.3       1 UNK         0.0000 
     27 C27        -2.0659   -6.0952   21.5617 C.3       1 UNK         0.0000 
     28 N28        -0.2163   -5.1668   19.1865 N.2       1 UNK         0.0000 
     29 C29         0.9500   -4.5815   19.0834 C.ar      1 UNK         0.0000 
     30 N30         3.8911   -3.8953   18.9829 N.ar      1 UNK         0.0000 
     31 H31         7.1176   -8.9644   15.6165 H         1 UNK         0.0000 
     32 H32         5.9349   -8.9511   14.2403 H         1 UNK         0.0000 
     33 H33         4.0927   -8.0280   15.8102 H         1 UNK         0.0000 
     34 H34         5.2555   -8.1044   17.1969 H         1 UNK         0.0000 
     35 H35         6.3325   -5.9504   13.4689 H         1 UNK         0.0000 
     36 H36         5.0823   -5.2201   14.5457 H         1 UNK         0.0000 
     37 H37         4.7405   -5.6587   17.2897 H         1 UNK         0.0000 
     38 H38         8.0178   -2.0341   18.1999 H         1 UNK         0.0000 
     39 H39         8.5516   -3.7964   16.5727 H         1 UNK         0.0000 
     40 H40         6.2266   -0.9539   19.7161 H         1 UNK         0.0000 
     41 H41         2.0920   -1.8661   20.7411 H         1 UNK         0.0000 
     42 H42        -2.6460   -4.0332   21.0771 H         1 UNK         0.0000 
     43 H43        -3.3663   -4.4101   18.8128 H         1 UNK         0.0000 
     44 H44        -2.5761   -5.9482   18.6604 H         1 UNK         0.0000 
     45 H45        -5.0399   -5.2586   20.3648 H         1 UNK         0.0000 
     46 H46        -4.9744   -6.3190   18.9753 H         1 UNK         0.0000 
     47 H47        -4.0510   -6.0466   22.4705 H         1 UNK         0.0000 
     48 H48        -3.2947   -7.6257   22.4890 H         1 UNK         0.0000 
     49 H49        -1.3578   -6.8369   21.1909 H         1 UNK         0.0000 
     50 H50        -1.6484   -5.7333   22.5036 H         1 UNK         0.0000 
     51 H51         1.6633   -4.9282   18.3504 H         1 UNK         0.0000 
@<TRIPOS>BOND
     1    1    2 3    
     2    2    3 1    
     3    3    7 1    
     4    3    4 1    
     5    3    8 1    
     6    4    6 1    
     7    4    5 1    
     8    4    7 1    
     9    5    6 1    
    10    5   31 1    
    11    5   32 1    
    12    6   33 1    
    13    6   34 1    
    14    7   35 1    
    15    7   36 1    
    16    8   13 ar   
    17    8    9 ar   
    18    9   10 ar   
    19    9   37 1    
    20   10   30 ar   
    21   10   11 ar   
    22   11   12 ar   
    23   11   14 ar   
    24   12   13 ar   
    25   12   38 1    
    26   13   39 1    
    27   14   15 ar   
    28   14   40 1    
    29   15   16 ar   
    30   16   17 1    
    31   16   30 ar   
    32   17   18 1    
    33   17   41 1    
    34   18   29 ar   
    35   18   19 ar   
    36   19   20 1    
    37   19   21 ar   
    38   21   22 1    
    39   21   28 ar   
    40   22   27 1    
    41   22   23 1    
    42   22   42 1    
    43   23   24 1    
    44   23   43 1    
    45   23   44 1    
    46   24   25 1    
    47   24   45 1    
    48   24   46 1    
    49   25   26 1    
    50   26   27 1    
    51   26   47 1    
    52   26   48 1    
    53   27   49 1    
    54   27   50 1    
    55   28   29 ar   
    56   29   51 1    
@<TRIPOS>SUBSTRUCTURE
     1 UNK         1 GROUP             0       ****    0 ROOT    
