@<TRIPOS>MOLECULE
/home/yujie/leadopt/data/result/selection/LRRK2/lig_18.sdf:1
54   58    1
SMALL
USER_CHARGES


@<TRIPOS>ATOM
      1 Cl1         8.8230   -4.6557   16.3398 Cl        1 UNK         0.0000 
      2 C2          7.3009   -4.5197   17.1574 C.ar      1 UNK         0.0000 
      3 C3          7.1321   -3.4193   18.0000 C.ar      1 UNK         0.0000 
      4 C4          5.8922   -3.2023   18.6371 C.ar      1 UNK         0.0000 
      5 C5          5.5590   -2.0540   19.3939 C.ar      1 UNK         0.0000 
      6 N6          4.3325   -1.8440   19.9305 N.ar      1 UNK         0.0000 
      7 C7          4.8533   -4.1618   18.4876 C.ar      1 UNK         0.0000 
      8 C8          5.0563   -5.2790   17.6514 C.ar      1 UNK         0.0000 
      9 C9          6.2561   -5.4453   16.9466 C.ar      1 UNK         0.0000 
     10 C10         6.3929   -6.5522   15.8751 C.3       1 UNK         0.0000 
     11 C11         5.5911   -7.8761   16.0593 C.3       1 UNK         0.0000 
     12 F12         4.2729   -7.6662   16.0917 F         1 UNK         0.0000 
     13 C13         5.8517   -8.8586   14.8848 C.3       1 UNK         0.0000 
     14 N14         5.5627   -8.2459   13.5709 N.3       1 UNK         0.0000 
     15 C15         5.6873   -9.1092   12.3810 C.3       1 UNK         0.0000 
     16 C16         7.0134   -9.8526   12.1370 C.3       1 UNK         0.0000 
     17 O17         6.3336  -11.1725   12.2856 O.3       1 UNK         0.0000 
     18 C18         5.0104  -10.4910   12.3850 C.3       1 UNK         0.0000 
     19 C19         6.3323   -7.0147   13.3595 C.3       1 UNK         0.0000 
     20 C20         6.1049   -5.9758   14.4751 C.3       1 UNK         0.0000 
     21 N21         3.6376   -3.9897   19.0728 N.ar      1 UNK         0.0000 
     22 C22         3.4184   -2.8286   19.7435 C.ar      1 UNK         0.0000 
     23 N23         2.1498   -2.5747   20.2797 N.pl3     1 UNK         0.0000 
     24 C24         1.0123   -3.3493   20.2333 C.ar      1 UNK         0.0000 
     25 C25        -0.1006   -3.2288   21.0539 C.ar      1 UNK         0.0000 
     26 Cl26       -0.4258   -2.1626   22.3671 Cl        1 UNK         0.0000 
     27 N27        -1.0056   -4.1659   20.6156 N.pl3     1 UNK         0.0000 
     28 C28        -2.3448   -4.4443   21.1216 C.3       1 UNK         0.0000 
     29 C29        -2.3157   -5.4974   22.2379 C.3       1 UNK         0.0000 
     30 F30        -1.7572   -6.6518   21.8733 F         1 UNK         0.0000 
     31 F31        -3.5451   -5.7493   22.6849 F         1 UNK         0.0000 
     32 N32        -0.5248   -4.9119   19.6156 N.2       1 UNK         0.0000 
     33 C33         0.6686   -4.4205   19.3873 C.ar      1 UNK         0.0000 
     34 H34         7.9270   -2.6971   18.1227 H         1 UNK         0.0000 
     35 H35         6.2922   -1.2712   19.5372 H         1 UNK         0.0000 
     36 H36         4.2232   -5.9506   17.5285 H         1 UNK         0.0000 
     37 H37         7.4411   -6.8518   15.9050 H         1 UNK         0.0000 
     38 H38         5.8684   -8.3557   16.9976 H         1 UNK         0.0000 
     39 H39         6.8775   -9.2280   14.9132 H         1 UNK         0.0000 
     40 H40         5.2230   -9.7360   15.0325 H         1 UNK         0.0000 
     41 H41         5.3793   -8.5146   11.5181 H         1 UNK         0.0000 
     42 H42         7.4221   -9.7642   11.1288 H         1 UNK         0.0000 
     43 H43         7.7807   -9.7470   12.9042 H         1 UNK         0.0000 
     44 H44         4.5102  -10.7974   13.3039 H         1 UNK         0.0000 
     45 H45         4.4188  -10.7244   11.4985 H         1 UNK         0.0000 
     46 H46         7.3869   -7.2818   13.2693 H         1 UNK         0.0000 
     47 H47         6.0412   -6.5632   12.4092 H         1 UNK         0.0000 
     48 H48         5.0911   -5.5776   14.3971 H         1 UNK         0.0000 
     49 H49         6.7843   -5.1451   14.2847 H         1 UNK         0.0000 
     50 H50         2.0970   -1.6660   20.7146 H         1 UNK         0.0000 
     51 H51        -2.9681   -4.7922   20.2957 H         1 UNK         0.0000 
     52 H52        -2.7851   -3.5125   21.4773 H         1 UNK         0.0000 
     53 H53        -1.7436   -5.1353   23.0933 H         1 UNK         0.0000 
     54 H54         1.2820   -4.8327   18.6005 H         1 UNK         0.0000 
@<TRIPOS>BOND
     1    1    2 1    
     2    2    9 ar   
     3    2    3 ar   
     4    3    4 ar   
     5    3   34 1    
     6    4    5 ar   
     7    4    7 ar   
     8    5    6 ar   
     9    5   35 1    
    10    6   22 ar   
    11    7    8 ar   
    12    7   21 ar   
    13    8    9 ar   
    14    8   36 1    
    15    9   10 1    
    16   10   20 1    
    17   10   11 1    
    18   10   37 1    
    19   11   12 1    
    20   11   13 1    
    21   11   38 1    
    22   13   14 1    
    23   13   39 1    
    24   13   40 1    
    25   14   15 1    
    26   14   19 1    
    27   15   18 1    
    28   15   16 1    
    29   15   41 1    
    30   16   17 1    
    31   16   42 1    
    32   16   43 1    
    33   17   18 1    
    34   18   44 1    
    35   18   45 1    
    36   19   20 1    
    37   19   46 1    
    38   19   47 1    
    39   20   48 1    
    40   20   49 1    
    41   21   22 ar   
    42   22   23 1    
    43   23   24 1    
    44   23   50 1    
    45   24   33 ar   
    46   24   25 ar   
    47   25   26 1    
    48   25   27 ar   
    49   27   28 1    
    50   27   32 ar   
    51   28   29 1    
    52   28   51 1    
    53   28   52 1    
    54   29   30 1    
    55   29   31 1    
    56   29   53 1    
    57   32   33 ar   
    58   33   54 1    
@<TRIPOS>SUBSTRUCTURE
     1 UNK         1 GROUP             0       ****    0 ROOT    
