@<TRIPOS>MOLECULE
/home/yujie/leadopt/data/result/selection/LRRK2/lig_7.sdf:1
54   58    1
SMALL
USER_CHARGES


@<TRIPOS>ATOM
      1 C1         -0.3934   -2.5519   21.7346 C.3       1 UNK         0.0000 
      2 C2          0.0654   -3.5023   20.6477 C.ar      1 UNK         0.0000 
      3 N3         -0.7273   -4.5129   20.1454 N.pl3     1 UNK         0.0000 
      4 C4         -2.0953   -4.8738   20.5678 C.3       1 UNK         0.0000 
      5 C5         -3.0065   -5.1245   19.3373 C.3       1 UNK         0.0000 
      6 C6         -4.3501   -5.7454   19.7576 C.3       1 UNK         0.0000 
      7 O7         -4.1128   -6.9256   20.5264 O.3       1 UNK         0.0000 
      8 C8         -3.4217   -6.6913   21.7512 C.3       1 UNK         0.0000 
      9 C9         -2.0176   -6.1352   21.4610 C.3       1 UNK         0.0000 
     10 N10        -0.0923   -5.2409   19.2130 N.2       1 UNK         0.0000 
     11 C11         1.0809   -4.6748   19.0856 C.ar      1 UNK         0.0000 
     12 C12         1.2670   -3.5881   19.9500 C.ar      1 UNK         0.0000 
     13 N13         2.3407   -2.7531   20.1153 N.pl3     1 UNK         0.0000 
     14 C14         3.6527   -2.8377   19.6374 C.ar      1 UNK         0.0000 
     15 N15         4.0716   -3.9081   18.9079 N.ar      1 UNK         0.0000 
     16 C16         5.3375   -3.8626   18.4005 C.ar      1 UNK         0.0000 
     17 C17         5.7867   -4.8929   17.5443 C.ar      1 UNK         0.0000 
     18 C18         7.0581   -4.8337   16.9506 C.ar      1 UNK         0.0000 
     19 N19         7.4515   -5.8535   16.0427 N.am      1 UNK         0.0000 
     20 C20         6.5383   -6.7535   15.3392 C.3       1 UNK         0.0000 
     21 C21         5.6427   -6.0030   14.3320 C.3       1 UNK         0.0000 
     22 C22         7.4434   -7.7764   14.6786 C.3       1 UNK         0.0000 
     23 O23         8.7370   -7.3585   15.0253 O.3       1 UNK         0.0000 
     24 C24         8.7734   -6.2524   15.7883 C.2       1 UNK         0.0000 
     25 O25         9.8447   -5.7612   16.1364 O.2       1 UNK         0.0000 
     26 C26         7.8967   -3.7473   17.2471 C.ar      1 UNK         0.0000 
     27 C27         7.4962   -2.7278   18.1033 C.ar      1 UNK         0.0000 
     28 C28         6.2056   -2.7647   18.6668 C.ar      1 UNK         0.0000 
     29 C29         5.6702   -1.7490   19.4813 C.ar      1 UNK         0.0000 
     30 N30         4.4072   -1.7624   19.9570 N.ar      1 UNK         0.0000 
     31 H31         5.9164   -7.2694   16.0722 H         1 UNK         0.0000 
     32 H32         0.3935   -1.8538   22.0254 H         1 UNK         0.0000 
     33 H33        -1.2432   -1.9461   21.4124 H         1 UNK         0.0000 
     34 H34        -0.6963   -3.0817   22.6394 H         1 UNK         0.0000 
     35 H35        -2.4749   -4.0211   21.1326 H         1 UNK         0.0000 
     36 H36        -2.5232   -5.7311   18.5692 H         1 UNK         0.0000 
     37 H37        -3.2243   -4.1632   18.8612 H         1 UNK         0.0000 
     38 H38        -4.9341   -6.0097   18.8748 H         1 UNK         0.0000 
     39 H39        -4.9505   -5.0352   20.3291 H         1 UNK         0.0000 
     40 H40        -3.3481   -7.6307   22.3000 H         1 UNK         0.0000 
     41 H41        -3.9917   -6.0064   22.3830 H         1 UNK         0.0000 
     42 H42        -1.5743   -5.8610   22.4204 H         1 UNK         0.0000 
     43 H43        -1.3593   -6.8966   21.0374 H         1 UNK         0.0000 
     44 H44         1.7995   -5.0577   18.3782 H         1 UNK         0.0000 
     45 H45         2.2123   -1.9074   20.6497 H         1 UNK         0.0000 
     46 H46         5.1123   -5.7109   17.3424 H         1 UNK         0.0000 
     47 H47         4.9922   -6.7001   13.8001 H         1 UNK         0.0000 
     48 H48         4.9976   -5.2699   14.8183 H         1 UNK         0.0000 
     49 H49         6.2336   -5.4908   13.5716 H         1 UNK         0.0000 
     50 H50         7.3319   -7.7680   13.5922 H         1 UNK         0.0000 
     51 H51         7.2504   -8.7760   15.0723 H         1 UNK         0.0000 
     52 H52         8.8776   -3.6553   16.8040 H         1 UNK         0.0000 
     53 H53         8.1461   -1.8901   18.3118 H         1 UNK         0.0000 
     54 H54         6.2795   -0.8931   19.7273 H         1 UNK         0.0000 
@<TRIPOS>BOND
     1    1    2 1    
     2    1   32 1    
     3    1   33 1    
     4    1   34 1    
     5    2    3 ar   
     6    2   12 ar   
     7    3    4 1    
     8    3   10 ar   
     9    4    9 1    
    10    4    5 1    
    11    4   35 1    
    12    5    6 1    
    13    5   36 1    
    14    5   37 1    
    15    6    7 1    
    16    6   38 1    
    17    6   39 1    
    18    7    8 1    
    19    8    9 1    
    20    8   40 1    
    21    8   41 1    
    22    9   42 1    
    23    9   43 1    
    24   10   11 ar   
    25   11   12 ar   
    26   11   44 1    
    27   12   13 1    
    28   13   14 1    
    29   13   45 1    
    30   14   30 ar   
    31   14   15 ar   
    32   15   16 ar   
    33   16   17 ar   
    34   16   28 ar   
    35   17   18 ar   
    36   17   46 1    
    37   18   19 1    
    38   18   26 ar   
    39   19   24 am   BACKBONE|DICT|INTERRES
    40   19   20 1    
    41   20   31 1    
    42   20   21 1    
    43   20   22 1    
    44   21   47 1    
    45   21   48 1    
    46   21   49 1    
    47   22   23 1    
    48   22   50 1    
    49   22   51 1    
    50   23   24 1    
    51   24   25 2    
    52   26   27 ar   
    53   26   52 1    
    54   27   28 ar   
    55   27   53 1    
    56   28   29 ar   
    57   29   30 ar   
    58   29   54 1    
@<TRIPOS>SUBSTRUCTURE
     1 UNK         1 GROUP             0       ****    0 ROOT    
