@<TRIPOS>MOLECULE
/home/yujie/leadopt/data/result/selection/LRRK2/lig_16.sdf:1
54   59    1
SMALL
USER_CHARGES


@<TRIPOS>ATOM
      1 Cl1         8.8014   -5.0838   15.9112 Cl        1 UNK         0.0000 
      2 C2          7.3342   -4.8031   16.7884 C.ar      1 UNK         0.0000 
      3 C3          7.2764   -3.6591   17.5914 C.ar      1 UNK         0.0000 
      4 C4          6.1005   -3.3660   18.3175 C.ar      1 UNK         0.0000 
      5 C5          5.0087   -4.2752   18.2799 C.ar      1 UNK         0.0000 
      6 C6          5.0949   -5.4173   17.4654 C.ar      1 UNK         0.0000 
      7 C7          6.2286   -5.6735   16.6884 C.ar      1 UNK         0.0000 
      8 N8          6.2502   -6.7695   15.8277 N.pl3     1 UNK         0.0000 
      9 C9          5.5338   -8.0281   16.1149 C.3       1 UNK         0.0000 
     10 C10         4.0752   -8.0806   15.5796 C.3       1 UNK         0.0000 
     11 N11         3.9986   -7.7397   14.1490 N.3       1 UNK         0.0000 
     12 C12         2.6346   -7.7049   13.5847 C.3       1 UNK         0.0000 
     13 C13         1.7005   -8.9062   13.8325 C.3       1 UNK         0.0000 
     14 O14         0.8054   -8.0719   14.6857 O.3       1 UNK         0.0000 
     15 C15         1.5526   -6.8482   14.2809 C.3       1 UNK         0.0000 
     16 C16         4.6647   -6.4565   13.9080 C.3       1 UNK         0.0000 
     17 C17         6.1310   -6.5136   14.3838 C.3       1 UNK         0.0000 
     18 N18         3.8534   -4.0417   18.9556 N.ar      1 UNK         0.0000 
     19 C19         3.7550   -2.8723   19.6378 C.ar      1 UNK         0.0000 
     20 N20         2.5551   -2.5623   20.2832 N.pl3     1 UNK         0.0000 
     21 C21         1.3500   -3.2283   20.2708 C.ar      1 UNK         0.0000 
     22 C22         0.3305   -3.0998   21.1983 C.ar      1 UNK         0.0000 
     23 Cl23        0.2272   -2.1621   22.6406 Cl        1 UNK         0.0000 
     24 N24        -0.6880   -3.9138   20.7713 N.pl3     1 UNK         0.0000 
     25 C25        -1.9890   -4.1223   21.3970 C.3       1 UNK         0.0000 
     26 C26        -2.9896   -2.9825   21.3636 C.3       1 UNK         0.0000 
     27 C27        -3.2341   -4.2156   20.5317 C.3       1 UNK         0.0000 
     28 N28        -0.3745   -4.5823   19.6553 N.2       1 UNK         0.0000 
     29 C29         0.8356   -4.1667   19.3569 C.ar      1 UNK         0.0000 
     30 N30         4.7327   -1.9379   19.7457 N.ar      1 UNK         0.0000 
     31 C31         5.8918   -2.1983   19.0870 C.ar      1 UNK         0.0000 
     32 H32         8.1170   -2.9809   17.6403 H         1 UNK         0.0000 
     33 H33         4.2360   -6.0665   17.4382 H         1 UNK         0.0000 
     34 H34         6.0953   -8.8499   15.6674 H         1 UNK         0.0000 
     35 H35         5.5324   -8.2152   17.1888 H         1 UNK         0.0000 
     36 H36         3.7128   -9.0988   15.7251 H         1 UNK         0.0000 
     37 H37         3.4147   -7.4501   16.1683 H         1 UNK         0.0000 
     38 H38         2.7361   -7.4808   12.5230 H         1 UNK         0.0000 
     39 H39         1.1446   -9.2604   12.9625 H         1 UNK         0.0000 
     40 H40         2.1031   -9.7278   14.4229 H         1 UNK         0.0000 
     41 H41         1.8556   -6.2944   15.1714 H         1 UNK         0.0000 
     42 H42         0.9273   -6.2457   13.6186 H         1 UNK         0.0000 
     43 H43         4.1385   -5.6436   14.4113 H         1 UNK         0.0000 
     44 H44         4.6484   -6.2268   12.8427 H         1 UNK         0.0000 
     45 H45         6.6284   -5.5791   14.1277 H         1 UNK         0.0000 
     46 H46         6.6596   -7.2980   13.8405 H         1 UNK         0.0000 
     47 H47         2.6079   -1.6855   20.7766 H         1 UNK         0.0000 
     48 H48        -1.9319   -4.7321   22.2992 H         1 UNK         0.0000 
     49 H49        -2.7098   -2.0508   20.8694 H         1 UNK         0.0000 
     50 H50        -3.6021   -2.8060   22.2479 H         1 UNK         0.0000 
     51 H51        -4.0201   -4.9093   20.8308 H         1 UNK         0.0000 
     52 H52        -3.1350   -4.1559   19.4473 H         1 UNK         0.0000 
     53 H53         1.3421   -4.5352   18.4763 H         1 UNK         0.0000 
     54 H54         6.6715   -1.4543   19.1663 H         1 UNK         0.0000 
@<TRIPOS>BOND
     1    1    2 1    
     2    2    7 ar   
     3    2    3 ar   
     4    3    4 ar   
     5    3   32 1    
     6    4   31 ar   
     7    4    5 ar   
     8    5    6 ar   
     9    5   18 ar   
    10    6    7 ar   
    11    6   33 1    
    12    7    8 1    
    13    8   17 1    
    14    8    9 1    
    15    9   10 1    
    16    9   34 1    
    17    9   35 1    
    18   10   11 1    
    19   10   36 1    
    20   10   37 1    
    21   11   12 1    
    22   11   16 1    
    23   12   15 1    
    24   12   13 1    
    25   12   38 1    
    26   13   14 1    
    27   13   39 1    
    28   13   40 1    
    29   14   15 1    
    30   15   41 1    
    31   15   42 1    
    32   16   17 1    
    33   16   43 1    
    34   16   44 1    
    35   17   45 1    
    36   17   46 1    
    37   18   19 ar   
    38   19   20 1    
    39   19   30 ar   
    40   20   21 1    
    41   20   47 1    
    42   21   29 ar   
    43   21   22 ar   
    44   22   23 1    
    45   22   24 ar   
    46   24   25 1    
    47   24   28 ar   
    48   25   27 1    
    49   25   26 1    
    50   25   48 1    
    51   26   27 1    
    52   26   49 1    
    53   26   50 1    
    54   27   51 1    
    55   27   52 1    
    56   28   29 ar   
    57   29   53 1    
    58   30   31 ar   
    59   31   54 1    
@<TRIPOS>SUBSTRUCTURE
     1 UNK         1 GROUP             0       ****    0 ROOT    
