@<TRIPOS>MOLECULE
/home/yujie/leadopt/data/result/selection/LRRK2/lig_12.sdf:1
66   71    1
SMALL
USER_CHARGES


@<TRIPOS>ATOM
      1 C1         -0.6067   -2.4173   21.8007 C.3       1 UNK         0.0000 
      2 C2         -0.2064   -3.4539   20.7677 C.ar      1 UNK         0.0000 
      3 N3         -1.0811   -4.4096   20.2868 N.pl3     1 UNK         0.0000 
      4 C4         -2.4850   -4.6348   20.6894 C.3       1 UNK         0.0000 
      5 C5         -3.3666   -5.0323   19.4733 C.3       1 UNK         0.0000 
      6 C6         -4.7647   -5.4891   19.9276 C.3       1 UNK         0.0000 
      7 O7         -4.6361   -6.5473   20.8754 O.3       1 UNK         0.0000 
      8 C8         -3.9599   -6.1744   22.0757 C.3       1 UNK         0.0000 
      9 C9         -2.5128   -5.7532   21.7579 C.3       1 UNK         0.0000 
     10 N10        -0.4902   -5.2406   19.4152 N.2       1 UNK         0.0000 
     11 C11         0.7330   -4.7933   19.2977 C.ar      1 UNK         0.0000 
     12 C12         1.0041   -3.6849   20.1149 C.ar      1 UNK         0.0000 
     13 N13         2.1629   -2.9580   20.2816 N.pl3     1 UNK         0.0000 
     14 C14         3.4355   -3.1160   19.7122 C.ar      1 UNK         0.0000 
     15 N15         3.6821   -4.1620   18.8784 N.ar      1 UNK         0.0000 
     16 C16         4.9053   -4.2209   18.2846 C.ar      1 UNK         0.0000 
     17 C17         5.1426   -5.2057   17.2999 C.ar      1 UNK         0.0000 
     18 C18         6.3341   -5.2076   16.5628 C.ar      1 UNK         0.0000 
     19 C19         6.4728   -6.1387   15.3497 C.3       1 UNK         0.0000 
     20 C20         6.5083   -7.6369   15.7317 C.3       1 UNK         0.0000 
     21 C21         6.5418   -8.5613   14.5021 C.3       1 UNK         0.0000 
     22 N22         5.3230   -8.2336   13.6063 N.4       1 UNK         0.0000 
     23 C23         5.1214   -9.2277   12.4291 C.3       1 UNK         0.0000 
     24 C24         6.3383   -9.7362   11.6352 C.3       1 UNK         0.0000 
     25 O25         6.1577  -11.1039   12.2056 O.3       1 UNK         0.0000 
     26 C26         4.8564  -10.6930   12.8057 C.3       1 UNK         0.0000 
     27 C27         5.4173   -6.7819   13.0851 C.3       1 UNK         0.0000 
     28 C28         5.4028   -5.8138   14.2758 C.3       1 UNK         0.0000 
     29 C29         7.3479   -4.2987   16.8920 C.ar      1 UNK         0.0000 
     30 C30         7.1611   -3.3365   17.8838 C.ar      1 UNK         0.0000 
     31 C31         5.9201   -3.2582   18.5612 C.ar      1 UNK         0.0000 
     32 C32         5.5608   -2.2463   19.4811 C.ar      1 UNK         0.0000 
     33 N33         4.3315   -2.1525   20.0496 N.ar      1 UNK         0.0000 
     34 H34         0.2274   -1.7681   22.0724 H         1 UNK         0.0000 
     35 H35        -1.3983   -1.7625   21.4349 H         1 UNK         0.0000 
     36 H36        -0.9630   -2.8810   22.7219 H         1 UNK         0.0000 
     37 H37        -2.8316   -3.6839   21.0964 H         1 UNK         0.0000 
     38 H38        -2.9050   -5.7969   18.8420 H         1 UNK         0.0000 
     39 H39        -3.5078   -4.1646   18.8279 H         1 UNK         0.0000 
     40 H40        -5.3390   -5.8509   19.0722 H         1 UNK         0.0000 
     41 H41        -5.3327   -4.6602   20.3564 H         1 UNK         0.0000 
     42 H42        -3.9624   -7.0270   22.7535 H         1 UNK         0.0000 
     43 H43        -4.5014   -5.3717   22.5773 H         1 UNK         0.0000 
     44 H44        -2.0762   -5.3748   22.6824 H         1 UNK         0.0000 
     45 H45        -1.8979   -6.6079   21.4649 H         1 UNK         0.0000 
     46 H46         1.4275   -5.2865   18.6357 H         1 UNK         0.0000 
     47 H47         2.1287   -2.1298   20.8575 H         1 UNK         0.0000 
     48 H48         4.3487   -5.8984   17.0651 H         1 UNK         0.0000 
     49 H49         7.4445   -5.8976   14.9115 H         1 UNK         0.0000 
     50 H50         7.4249   -7.8381   16.2848 H         1 UNK         0.0000 
     51 H51         5.6626   -7.9046   16.3640 H         1 UNK         0.0000 
     52 H52         7.4430   -8.3967   13.9079 H         1 UNK         0.0000 
     53 H53         6.4881   -9.6148   14.7773 H         1 UNK         0.0000 
     54 H54         4.3286   -8.7811   11.8268 H         1 UNK         0.0000 
     55 H55         6.2128   -9.7770   10.5523 H         1 UNK         0.0000 
     56 H56         7.3220   -9.3588   11.9112 H         1 UNK         0.0000 
     57 H57         4.8501  -10.9352   13.8709 H         1 UNK         0.0000 
     58 H58         4.0407  -11.1824   12.2691 H         1 UNK         0.0000 
     59 H59         6.3324   -6.7144   12.4883 H         1 UNK         0.0000 
     60 H60         4.5607   -6.6000   12.4297 H         1 UNK         0.0000 
     61 H61         4.4023   -5.8094   14.7093 H         1 UNK         0.0000 
     62 H62         5.5882   -4.8157   13.8742 H         1 UNK         0.0000 
     63 H63         8.2769   -4.3029   16.3407 H         1 UNK         0.0000 
     64 H64         7.9379   -2.6140   18.0995 H         1 UNK         0.0000 
     65 H65         6.2703   -1.4674   19.7324 H         1 UNK         0.0000 
     66 H66         4.4963   -8.2881   14.1875 H         1 UNK         0.0000 
@<TRIPOS>BOND
     1    1    2 1    
     2    1   34 1    
     3    1   35 1    
     4    1   36 1    
     5    2    3 ar   
     6    2   12 ar   
     7    3    4 1    
     8    3   10 ar   
     9    4    9 1    
    10    4    5 1    
    11    4   37 1    
    12    5    6 1    
    13    5   38 1    
    14    5   39 1    
    15    6    7 1    
    16    6   40 1    
    17    6   41 1    
    18    7    8 1    
    19    8    9 1    
    20    8   42 1    
    21    8   43 1    
    22    9   44 1    
    23    9   45 1    
    24   10   11 ar   
    25   11   12 ar   
    26   11   46 1    
    27   12   13 1    
    28   13   14 1    
    29   13   47 1    
    30   14   33 ar   
    31   14   15 ar   
    32   15   16 ar   
    33   16   17 ar   
    34   16   31 ar   
    35   17   18 ar   
    36   17   48 1    
    37   18   19 1    
    38   18   29 ar   
    39   19   28 1    
    40   19   20 1    
    41   19   49 1    
    42   20   21 1    
    43   20   50 1    
    44   20   51 1    
    45   21   22 1    
    46   21   52 1    
    47   21   53 1    
    48   22   23 1    
    49   22   27 1    
    50   22   66 1    
    51   23   26 1    
    52   23   24 1    
    53   23   54 1    
    54   24   25 1    
    55   24   55 1    
    56   24   56 1    
    57   25   26 1    
    58   26   57 1    
    59   26   58 1    
    60   27   28 1    
    61   27   59 1    
    62   27   60 1    
    63   28   61 1    
    64   28   62 1    
    65   29   30 ar   
    66   29   63 1    
    67   30   31 ar   
    68   30   64 1    
    69   31   32 ar   
    70   32   33 ar   
    71   32   65 1    
@<TRIPOS>SUBSTRUCTURE
     1 UNK         1 GROUP             0       ****    0 ROOT    
