/home/yujie/leadopt/data/result/selection/LRRK2/lig_18.sdf:1
                    3D
 Schrodinger Suite 2020-3.
 54 58  0  0  1  0            999 V2000
    8.8230   -4.6557   16.3398 Cl  0  0  0  0  0  0
    7.3009   -4.5197   17.1574 C   0  0  0  0  0  0
    7.1321   -3.4193   18.0000 C   0  0  0  0  0  0
    5.8922   -3.2023   18.6371 C   0  0  0  0  0  0
    5.5590   -2.0540   19.3939 C   0  0  0  0  0  0
    4.3325   -1.8440   19.9305 N   0  0  0  0  0  0
    4.8533   -4.1618   18.4876 C   0  0  0  0  0  0
    5.0563   -5.2790   17.6514 C   0  0  0  0  0  0
    6.2561   -5.4453   16.9466 C   0  0  0  0  0  0
    6.3929   -6.5522   15.8751 C   0  0  1  0  0  0
    5.5911   -7.8761   16.0593 C   0  0  1  0  0  0
    4.2729   -7.6662   16.0917 F   0  0  0  0  0  0
    5.8517   -8.8586   14.8848 C   0  0  0  0  0  0
    5.5627   -8.2459   13.5709 N   0  0  1  0  0  0
    5.6873   -9.1092   12.3810 C   0  0  0  0  0  0
    7.0134   -9.8526   12.1370 C   0  0  0  0  0  0
    6.3336  -11.1725   12.2856 O   0  0  0  0  0  0
    5.0104  -10.4910   12.3850 C   0  0  0  0  0  0
    6.3323   -7.0147   13.3595 C   0  0  0  0  0  0
    6.1049   -5.9758   14.4751 C   0  0  0  0  0  0
    3.6376   -3.9897   19.0728 N   0  0  0  0  0  0
    3.4184   -2.8286   19.7435 C   0  0  0  0  0  0
    2.1498   -2.5747   20.2797 N   0  0  0  0  0  0
    1.0123   -3.3493   20.2333 C   0  0  0  0  0  0
   -0.1006   -3.2288   21.0539 C   0  0  0  0  0  0
   -0.4258   -2.1626   22.3671 Cl  0  0  0  0  0  0
   -1.0056   -4.1659   20.6156 N   0  0  0  0  0  0
   -2.3448   -4.4443   21.1216 C   0  0  0  0  0  0
   -2.3157   -5.4974   22.2379 C   0  0  0  0  0  0
   -1.7572   -6.6518   21.8733 F   0  0  0  0  0  0
   -3.5451   -5.7493   22.6849 F   0  0  0  0  0  0
   -0.5248   -4.9119   19.6156 N   0  0  0  0  0  0
    0.6686   -4.4205   19.3873 C   0  0  0  0  0  0
    7.9270   -2.6971   18.1227 H   0  0  0  0  0  0
    6.2922   -1.2712   19.5372 H   0  0  0  0  0  0
    4.2232   -5.9506   17.5285 H   0  0  0  0  0  0
    7.4411   -6.8518   15.9050 H   0  0  0  0  0  0
    5.8684   -8.3557   16.9976 H   0  0  0  0  0  0
    6.8775   -9.2280   14.9132 H   0  0  0  0  0  0
    5.2230   -9.7360   15.0325 H   0  0  0  0  0  0
    5.3793   -8.5146   11.5181 H   0  0  0  0  0  0
    7.4221   -9.7642   11.1288 H   0  0  0  0  0  0
    7.7807   -9.7470   12.9042 H   0  0  0  0  0  0
    4.5102  -10.7974   13.3039 H   0  0  0  0  0  0
    4.4188  -10.7244   11.4985 H   0  0  0  0  0  0
    7.3869   -7.2818   13.2693 H   0  0  0  0  0  0
    6.0412   -6.5632   12.4092 H   0  0  0  0  0  0
    5.0911   -5.5776   14.3971 H   0  0  0  0  0  0
    6.7843   -5.1451   14.2847 H   0  0  0  0  0  0
    2.0970   -1.6660   20.7146 H   0  0  0  0  0  0
   -2.9681   -4.7922   20.2957 H   0  0  0  0  0  0
   -2.7851   -3.5125   21.4773 H   0  0  0  0  0  0
   -1.7436   -5.1353   23.0933 H   0  0  0  0  0  0
    1.2820   -4.8327   18.6005 H   0  0  0  0  0  0
  1  2  1  0  0  0
  2  9  1  0  0  0
  2  3  2  0  0  0
  3  4  1  0  0  0
  3 34  1  0  0  0
  4  5  1  0  0  0
  4  7  2  0  0  0
  5  6  2  0  0  0
  5 35  1  0  0  0
  6 22  1  0  0  0
  7  8  1  0  0  0
  7 21  1  0  0  0
  8  9  2  0  0  0
  8 36  1  0  0  0
  9 10  1  0  0  0
 10 20  1  0  0  0
 10 11  1  0  0  0
 10 37  1  0  0  0
 11 12  1  0  0  0
 11 13  1  0  0  0
 11 38  1  0  0  0
 13 14  1  0  0  0
 13 39  1  0  0  0
 13 40  1  0  0  0
 14 15  1  0  0  0
 14 19  1  0  0  0
 15 18  1  0  0  0
 15 16  1  0  0  0
 15 41  1  0  0  0
 16 17  1  0  0  0
 16 42  1  0  0  0
 16 43  1  0  0  0
 17 18  1  0  0  0
 18 44  1  0  0  0
 18 45  1  0  0  0
 19 20  1  0  0  0
 19 46  1  0  0  0
 19 47  1  0  0  0
 20 48  1  0  0  0
 20 49  1  0  0  0
 21 22  2  0  0  0
 22 23  1  0  0  0
 23 24  1  0  0  0
 23 50  1  0  0  0
 24 33  1  0  0  0
 24 25  2  0  0  0
 25 26  1  0  0  0
 25 27  1  0  0  0
 27 28  1  0  0  0
 27 32  1  0  0  0
 28 29  1  0  0  0
 28 51  1  0  0  0
 28 52  1  0  0  0
 29 30  1  0  0  0
 29 31  1  0  0  0
 29 53  1  0  0  0
 32 33  2  0  0  0
 33 54  1  0  0  0
M  END
> <s_m_source_file>
/home/yujie/leadopt/data/result/selection/LRRK2/lig_18.sdf

> <i_m_source_file_index>
1

> <i_lp_mmshare_version>
51139

> <i_f3d_flags>
0

> <s_epik_input>
W0NIMl0xT1tDSDJdW0NIXTFOKFtDSDJdW0NIMl0yKVtDSDJdW0NASF0oRilbQ0BASF0yYyhjKENsKVtjSF0zKVtjSF1jKGMzNCluYyhuW2NIXTQpW05IXWM1YyhDbCluKFtDSDJdW0NIXShGKUYpbltjSF01

> <s_epik_cmdline>
J2VwaWtfcHl0aG9uJywgJy1waHQnLCAnMi4wJywgJy1waCcsICc3LjAnLCAnLXRuJywgJzgnLCAnLW1hJywgJzIwMCcsICctaW1hZScsICc8aW5maWxlLm1hZT4nLCAnLW9tYWUnLCAnPG91dGZpbGUubWFlPic=

> <r_epik_Ionization_Penalty>
  0.0545

> <r_epik_Ionization_Penalty_Charging>
  0.0000

> <r_epik_Ionization_Penalty_Neutral>
  0.0545

> <r_epik_State_Penalty>
  0.0468

> <r_epik_Charging_Adjusted_Penalty>
0.0468339

> <i_epik_Tot_Q>
0

> <i_epik_Tot_abs_Q>
0

> <s_lp_Force_Field>
OPLS3e

> <r_lp_Energy>
32.6306

> <b_lp_Chiralities_Consistent>
1

> <s_lp_Variant>
/home/yujie/leadopt/data/result/selection/LRRK2/lig_18.sdf:1-1

> <s_i_glide_gridfile>
glide-grid_LRRK2

> <i_i_glide_lignum>
1

> <i_i_glide_rotatable_bonds>
6

> <r_i_docking_score>
-8.14076580976019

> <r_i_glide_ligand_efficiency>
-0.246689873023036

> <r_i_glide_ligand_efficiency_sa>
-0.791266235661477

> <r_i_glide_ligand_efficiency_ln>
-1.81046416546116

> <r_i_glide_gscore>
-8.18759970976019

> <r_i_glide_lipo>
-3.66045479142942

> <r_i_glide_hbond>
-0.227087374311948

> <r_i_glide_metal>
-0

> <r_i_glide_rewards>
-1.5587029676238

> <r_i_glide_evdw>
-45.9778594970703

> <r_i_glide_ecoul>
-4.83211612701416

> <r_i_glide_erotb>
0.284442799447699

> <r_i_glide_esite>
-0.00208698193708188

> <r_i_glide_emodel>
-69.6627236527475

> <r_i_glide_energy>
-50.8099756240845

> <r_i_glide_einternal>
10.4525184631348

> <i_i_glide_confnum>
101

> <i_i_glide_posenum>
16

> <r_i_glide_eff_state_penalty>
0.0468339

$$$$
