@<TRIPOS>MOLECULE
/home/yujie/leadopt/data/result/selection/LRRK2/lig_21.sdf:1
59   64    1
SMALL
USER_CHARGES


@<TRIPOS>ATOM
      1 Cl1         8.6464   -4.7870   16.1690 Cl        1 UNK         0.0000 
      2 C2          7.1488   -4.6137   17.0242 C.ar      1 UNK         0.0000 
      3 C3          7.0320   -3.5207   17.8843 C.ar      1 UNK         0.0000 
      4 C4          5.8150   -3.2803   18.5561 C.ar      1 UNK         0.0000 
      5 C5          5.5348   -2.1358   19.3377 C.ar      1 UNK         0.0000 
      6 N6          4.3278   -1.8980   19.9035 N.ar      1 UNK         0.0000 
      7 C7          4.7437   -4.2062   18.4182 C.ar      1 UNK         0.0000 
      8 C8          4.8960   -5.3179   17.5668 C.ar      1 UNK         0.0000 
      9 C9          6.0742   -5.5083   16.8330 C.ar      1 UNK         0.0000 
     10 C10         6.1652   -6.6271   15.7746 C.3       1 UNK         0.0000 
     11 C11         5.2835   -7.8897   15.9956 C.3       1 UNK         0.0000 
     12 F12         3.9813   -7.6087   15.9083 F         1 UNK         0.0000 
     13 C13         5.5587   -8.9617   14.9190 C.3       1 UNK         0.0000 
     14 N14         5.3087   -8.3708   13.5053 N.4       1 UNK         0.0000 
     15 C15         5.5668   -9.4273   12.3933 C.3       1 UNK         0.0000 
     16 C16         4.7718  -10.7224   12.4761 C.3       1 UNK         0.0000 
     17 F17         3.4923  -10.4405   12.7396 F         1 UNK         0.0000 
     18 C18         4.8605  -11.2722   11.0588 C.3       1 UNK         0.0000 
     19 O19         4.7642  -10.1079   10.2450 O.3       1 UNK         0.0000 
     20 C20         5.3156   -8.9819   10.9361 C.3       1 UNK         0.0000 
     21 C21         6.1826   -7.1152   13.2657 C.3       1 UNK         0.0000 
     22 C22         5.9243   -6.0613   14.3588 C.3       1 UNK         0.0000 
     23 N23         3.5452   -4.0091   19.0305 N.ar      1 UNK         0.0000 
     24 C24         3.3790   -2.8509   19.7198 C.ar      1 UNK         0.0000 
     25 N25         2.1316   -2.5624   20.2820 N.pl3     1 UNK         0.0000 
     26 C26         0.9859   -3.3203   20.3251 C.ar      1 UNK         0.0000 
     27 C27        -0.0316   -3.2002   21.2577 C.ar      1 UNK         0.0000 
     28 Cl28       -0.1960   -2.1616   22.6215 Cl        1 UNK         0.0000 
     29 N29        -0.9803   -4.1304   20.9161 N.pl3     1 UNK         0.0000 
     30 C30        -2.2357   -4.4135   21.5992 C.3       1 UNK         0.0000 
     31 C31        -3.2952   -3.3249   21.6909 C.3       1 UNK         0.0000 
     32 C32        -3.5210   -4.5153   20.8018 C.3       1 UNK         0.0000 
     33 F33        -4.4265   -5.4131   21.1861 F         1 UNK         0.0000 
     34 F34        -3.5008   -4.3045   19.4862 F         1 UNK         0.0000 
     35 N35        -0.6196   -4.8626   19.8557 N.2       1 UNK         0.0000 
     36 C36         0.5465   -4.3733   19.5025 C.ar      1 UNK         0.0000 
     37 H37         7.8503   -2.8229   17.9967 H         1 UNK         0.0000 
     38 H38         6.2922   -1.3762   19.4763 H         1 UNK         0.0000 
     39 H39         4.0441   -5.9694   17.4631 H         1 UNK         0.0000 
     40 H40         7.1968   -6.9777   15.8320 H         1 UNK         0.0000 
     41 H41         5.4697   -8.3064   16.9868 H         1 UNK         0.0000 
     42 H42         6.5894   -9.3210   14.9501 H         1 UNK         0.0000 
     43 H43         4.8884   -9.8139   15.0431 H         1 UNK         0.0000 
     44 H44         6.6309   -9.6514   12.5072 H         1 UNK         0.0000 
     45 H45         5.1314  -11.4213   13.2327 H         1 UNK         0.0000 
     46 H46         5.8130  -11.7683   10.8674 H         1 UNK         0.0000 
     47 H47         4.0736  -11.9902   10.8256 H         1 UNK         0.0000 
     48 H48         4.5923   -8.1683   10.9070 H         1 UNK         0.0000 
     49 H49         6.2556   -8.6698   10.4751 H         1 UNK         0.0000 
     50 H50         7.2237   -7.4433   13.2465 H         1 UNK         0.0000 
     51 H51         5.9296   -6.7151   12.2850 H         1 UNK         0.0000 
     52 H52         4.9042   -5.6841   14.2643 H         1 UNK         0.0000 
     53 H53         6.5949   -5.2212   14.1773 H         1 UNK         0.0000 
     54 H54         2.1179   -1.6537   20.7201 H         1 UNK         0.0000 
     55 H55        -2.1057   -5.0596   22.4683 H         1 UNK         0.0000 
     56 H56        -3.1056   -2.3538   21.2304 H         1 UNK         0.0000 
     57 H57        -3.8800   -3.2333   22.6060 H         1 UNK         0.0000 
     58 H58         1.0778   -4.7765   18.6531 H         1 UNK         0.0000 
     59 H59         4.3371   -8.0868   13.4638 H         1 UNK         0.0000 
@<TRIPOS>BOND
     1    1    2 1    
     2    2    9 ar   
     3    2    3 ar   
     4    3    4 ar   
     5    3   37 1    
     6    4    5 ar   
     7    4    7 ar   
     8    5    6 ar   
     9    5   38 1    
    10    6   24 ar   
    11    7    8 ar   
    12    7   23 ar   
    13    8    9 ar   
    14    8   39 1    
    15    9   10 1    
    16   10   22 1    
    17   10   11 1    
    18   10   40 1    
    19   11   12 1    
    20   11   13 1    
    21   11   41 1    
    22   13   14 1    
    23   13   42 1    
    24   13   43 1    
    25   14   15 1    
    26   14   21 1    
    27   14   59 1    
    28   15   20 1    
    29   15   16 1    
    30   15   44 1    
    31   16   17 1    
    32   16   18 1    
    33   16   45 1    
    34   18   19 1    
    35   18   46 1    
    36   18   47 1    
    37   19   20 1    
    38   20   48 1    
    39   20   49 1    
    40   21   22 1    
    41   21   50 1    
    42   21   51 1    
    43   22   52 1    
    44   22   53 1    
    45   23   24 ar   
    46   24   25 1    
    47   25   26 1    
    48   25   54 1    
    49   26   36 ar   
    50   26   27 ar   
    51   27   28 1    
    52   27   29 ar   
    53   29   30 1    
    54   29   35 ar   
    55   30   32 1    
    56   30   31 1    
    57   30   55 1    
    58   31   32 1    
    59   31   56 1    
    60   31   57 1    
    61   32   33 1    
    62   32   34 1    
    63   35   36 ar   
    64   36   58 1    
@<TRIPOS>SUBSTRUCTURE
     1 UNK         1 GROUP             0       ****    0 ROOT    
