@<TRIPOS>MOLECULE
/home/yujie/leadopt/data/result/selection/LRRK2/lig_5.sdf:1
46   50    1
SMALL
USER_CHARGES


@<TRIPOS>ATOM
      1 C1          3.5178   -2.6661   19.6728 C.ar      1 UNK         0.0000 
      2 N2          2.1788   -2.5624   20.0693 N.pl3     1 UNK         0.0000 
      3 C3          1.1684   -3.4724   19.8853 C.ar      1 UNK         0.0000 
      4 C4          0.0560   -3.6532   20.6854 C.ar      1 UNK         0.0000 
      5 N5         -0.6864   -4.6571   20.1169 N.pl3     1 UNK         0.0000 
      6 C6         -1.9438   -5.2333   20.6169 C.3       1 UNK         0.0000 
      7 C7         -3.1162   -5.1394   19.6120 C.3       1 UNK         0.0000 
      8 C8         -3.0986   -6.2949   18.5846 C.3       1 UNK         0.0000 
      9 O9         -3.0078   -7.5478   19.2686 O.3       1 UNK         0.0000 
     10 C10        -1.8162   -7.7238   20.0406 C.3       1 UNK         0.0000 
     11 C11        -1.7774   -6.6673   21.1649 C.3       1 UNK         0.0000 
     12 N12        -0.1161   -5.1233   18.9966 N.2       1 UNK         0.0000 
     13 C13         0.9726   -4.4072   18.8543 C.ar      1 UNK         0.0000 
     14 N14         3.9565   -3.8089   19.0852 N.ar      1 UNK         0.0000 
     15 C15         5.2283   -3.8292   18.5876 C.ar      1 UNK         0.0000 
     16 C16         5.7123   -4.9706   17.8849 C.ar      1 UNK         0.0000 
     17 C17         4.8196   -6.2006   17.7268 C.3       1 UNK         0.0000 
     18 C18         3.6360   -6.2110   16.7885 C.3       1 UNK         0.0000 
     19 C19         4.8376   -7.0783   16.4954 C.3       1 UNK         0.0000 
     20 C20         7.0103   -4.9619   17.3683 C.ar      1 UNK         0.0000 
     21 C21         7.8391   -3.8547   17.5265 C.ar      1 UNK         0.0000 
     22 C22         7.3947   -2.7201   18.1993 C.ar      1 UNK         0.0000 
     23 C23         6.0849   -2.6950   18.7287 C.ar      1 UNK         0.0000 
     24 C24         5.5322   -1.5878   19.4068 C.ar      1 UNK         0.0000 
     25 N25         4.2666   -1.5584   19.8839 N.ar      1 UNK         0.0000 
     26 H26         1.9556   -1.6512   20.4430 H         1 UNK         0.0000 
     27 H27        -0.2626   -3.1703   21.5976 H         1 UNK         0.0000 
     28 H28        -2.1850   -4.5883   21.4664 H         1 UNK         0.0000 
     29 H29        -4.0570   -5.1629   20.1664 H         1 UNK         0.0000 
     30 H30        -3.1366   -4.1631   19.1263 H         1 UNK         0.0000 
     31 H31        -4.0136   -6.2790   17.9904 H         1 UNK         0.0000 
     32 H32        -2.2781   -6.1913   17.8703 H         1 UNK         0.0000 
     33 H33        -1.8187   -8.7247   20.4718 H         1 UNK         0.0000 
     34 H34        -0.9301   -7.6697   19.4037 H         1 UNK         0.0000 
     35 H35        -0.8700   -6.7522   21.7649 H         1 UNK         0.0000 
     36 H36        -2.5721   -6.8659   21.8876 H         1 UNK         0.0000 
     37 H37         1.6342   -4.5638   18.0156 H         1 UNK         0.0000 
     38 H38         4.6640   -6.7202   18.6730 H         1 UNK         0.0000 
     39 H39         3.4534   -5.3290   16.1752 H         1 UNK         0.0000 
     40 H40         2.7111   -6.6821   17.1279 H         1 UNK         0.0000 
     41 H41         4.7570   -8.1585   16.6276 H         1 UNK         0.0000 
     42 H42         5.4811   -6.8126   15.6568 H         1 UNK         0.0000 
     43 H43         7.3867   -5.8275   16.8417 H         1 UNK         0.0000 
     44 H44         8.8400   -3.8765   17.1206 H         1 UNK         0.0000 
     45 H45         8.0417   -1.8619   18.3158 H         1 UNK         0.0000 
     46 H46         6.1222   -0.6924   19.5384 H         1 UNK         0.0000 
@<TRIPOS>BOND
     1    1   25 ar   
     2    1    2 1    
     3    1   14 ar   
     4    2    3 1    
     5    2   26 1    
     6    3   13 ar   
     7    3    4 ar   
     8    4    5 ar   
     9    4   27 1    
    10    5    6 1    
    11    5   12 ar   
    12    6   11 1    
    13    6    7 1    
    14    6   28 1    
    15    7    8 1    
    16    7   29 1    
    17    7   30 1    
    18    8    9 1    
    19    8   31 1    
    20    8   32 1    
    21    9   10 1    
    22   10   11 1    
    23   10   33 1    
    24   10   34 1    
    25   11   35 1    
    26   11   36 1    
    27   12   13 ar   
    28   13   37 1    
    29   14   15 ar   
    30   15   16 ar   
    31   15   23 ar   
    32   16   17 1    
    33   16   20 ar   
    34   17   19 1    
    35   17   18 1    
    36   17   38 1    
    37   18   19 1    
    38   18   39 1    
    39   18   40 1    
    40   19   41 1    
    41   19   42 1    
    42   20   21 ar   
    43   20   43 1    
    44   21   22 ar   
    45   21   44 1    
    46   22   23 ar   
    47   22   45 1    
    48   23   24 ar   
    49   24   25 ar   
    50   24   46 1    
@<TRIPOS>SUBSTRUCTURE
     1 UNK         1 GROUP             0       ****    0 ROOT    
