/home/yujie/leadopt/data/result/selection/LRRK2/lig_16.sdf:1
                    3D
 Schrodinger Suite 2020-3.
 54 59  0  0  1  0            999 V2000
    8.8014   -5.0838   15.9112 Cl  0  0  0  0  0  0
    7.3342   -4.8031   16.7884 C   0  0  0  0  0  0
    7.2764   -3.6591   17.5914 C   0  0  0  0  0  0
    6.1005   -3.3660   18.3175 C   0  0  0  0  0  0
    5.0087   -4.2752   18.2799 C   0  0  0  0  0  0
    5.0949   -5.4173   17.4654 C   0  0  0  0  0  0
    6.2286   -5.6735   16.6884 C   0  0  0  0  0  0
    6.2502   -6.7695   15.8277 N   0  0  0  0  0  0
    5.5338   -8.0281   16.1149 C   0  0  0  0  0  0
    4.0752   -8.0806   15.5796 C   0  0  0  0  0  0
    3.9986   -7.7397   14.1490 N   0  0  0  0  0  0
    2.6346   -7.7049   13.5847 C   0  0  0  0  0  0
    1.7005   -8.9062   13.8325 C   0  0  0  0  0  0
    0.8054   -8.0719   14.6857 O   0  0  0  0  0  0
    1.5526   -6.8482   14.2809 C   0  0  0  0  0  0
    4.6647   -6.4565   13.9080 C   0  0  0  0  0  0
    6.1310   -6.5136   14.3838 C   0  0  0  0  0  0
    3.8534   -4.0417   18.9556 N   0  0  0  0  0  0
    3.7550   -2.8723   19.6378 C   0  0  0  0  0  0
    2.5551   -2.5623   20.2832 N   0  0  0  0  0  0
    1.3500   -3.2283   20.2708 C   0  0  0  0  0  0
    0.3305   -3.0998   21.1983 C   0  0  0  0  0  0
    0.2272   -2.1621   22.6406 Cl  0  0  0  0  0  0
   -0.6880   -3.9138   20.7713 N   0  0  0  0  0  0
   -1.9890   -4.1223   21.3970 C   0  0  0  0  0  0
   -2.9896   -2.9825   21.3636 C   0  0  0  0  0  0
   -3.2341   -4.2156   20.5317 C   0  0  0  0  0  0
   -0.3745   -4.5823   19.6553 N   0  0  0  0  0  0
    0.8356   -4.1667   19.3569 C   0  0  0  0  0  0
    4.7327   -1.9379   19.7457 N   0  0  0  0  0  0
    5.8918   -2.1983   19.0870 C   0  0  0  0  0  0
    8.1170   -2.9809   17.6403 H   0  0  0  0  0  0
    4.2360   -6.0665   17.4382 H   0  0  0  0  0  0
    6.0953   -8.8499   15.6674 H   0  0  0  0  0  0
    5.5324   -8.2152   17.1888 H   0  0  0  0  0  0
    3.7128   -9.0988   15.7251 H   0  0  0  0  0  0
    3.4147   -7.4501   16.1683 H   0  0  0  0  0  0
    2.7361   -7.4808   12.5230 H   0  0  0  0  0  0
    1.1446   -9.2604   12.9625 H   0  0  0  0  0  0
    2.1031   -9.7278   14.4229 H   0  0  0  0  0  0
    1.8556   -6.2944   15.1714 H   0  0  0  0  0  0
    0.9273   -6.2457   13.6186 H   0  0  0  0  0  0
    4.1385   -5.6436   14.4113 H   0  0  0  0  0  0
    4.6484   -6.2268   12.8427 H   0  0  0  0  0  0
    6.6284   -5.5791   14.1277 H   0  0  0  0  0  0
    6.6596   -7.2980   13.8405 H   0  0  0  0  0  0
    2.6079   -1.6855   20.7766 H   0  0  0  0  0  0
   -1.9319   -4.7321   22.2992 H   0  0  0  0  0  0
   -2.7098   -2.0508   20.8694 H   0  0  0  0  0  0
   -3.6021   -2.8060   22.2479 H   0  0  0  0  0  0
   -4.0201   -4.9093   20.8308 H   0  0  0  0  0  0
   -3.1350   -4.1559   19.4473 H   0  0  0  0  0  0
    1.3421   -4.5352   18.4763 H   0  0  0  0  0  0
    6.6715   -1.4543   19.1663 H   0  0  0  0  0  0
  1  2  1  0  0  0
  2  7  1  0  0  0
  2  3  2  0  0  0
  3  4  1  0  0  0
  3 32  1  0  0  0
  4 31  1  0  0  0
  4  5  2  0  0  0
  5  6  1  0  0  0
  5 18  1  0  0  0
  6  7  2  0  0  0
  6 33  1  0  0  0
  7  8  1  0  0  0
  8 17  1  0  0  0
  8  9  1  0  0  0
  9 10  1  0  0  0
  9 34  1  0  0  0
  9 35  1  0  0  0
 10 11  1  0  0  0
 10 36  1  0  0  0
 10 37  1  0  0  0
 11 12  1  0  0  0
 11 16  1  0  0  0
 12 15  1  0  0  0
 12 13  1  0  0  0
 12 38  1  0  0  0
 13 14  1  0  0  0
 13 39  1  0  0  0
 13 40  1  0  0  0
 14 15  1  0  0  0
 15 41  1  0  0  0
 15 42  1  0  0  0
 16 17  1  0  0  0
 16 43  1  0  0  0
 16 44  1  0  0  0
 17 45  1  0  0  0
 17 46  1  0  0  0
 18 19  2  0  0  0
 19 20  1  0  0  0
 19 30  1  0  0  0
 20 21  1  0  0  0
 20 47  1  0  0  0
 21 29  1  0  0  0
 21 22  2  0  0  0
 22 23  1  0  0  0
 22 24  1  0  0  0
 24 25  1  0  0  0
 24 28  1  0  0  0
 25 27  1  0  0  0
 25 26  1  0  0  0
 25 48  1  0  0  0
 26 27  1  0  0  0
 26 49  1  0  0  0
 26 50  1  0  0  0
 27 51  1  0  0  0
 27 52  1  0  0  0
 28 29  2  0  0  0
 29 53  1  0  0  0
 30 31  2  0  0  0
 31 54  1  0  0  0
M  END
> <s_m_source_file>
/home/yujie/leadopt/data/result/selection/LRRK2/lig_16.sdf

> <i_m_source_file_index>
1

> <i_lp_mmshare_version>
51139

> <i_f3d_flags>
0

> <s_epik_input>
W0NIMl0xT1tDSDJdW0NIXTFOKFtDSDJdW0NIMl0yKVtDSDJdW0NIMl1OMmMoYyhDbClbY0hdMylbY0hdYyhjMzQpbmMobltjSF00KVtOSF1jNWMoQ2wpbihuW2NIXTUpW0NIXTZbQ0gyXVtDSDJdNg==

> <s_epik_cmdline>
J2VwaWtfcHl0aG9uJywgJy1waHQnLCAnMi4wJywgJy1waCcsICc3LjAnLCAnLXRuJywgJzgnLCAnLW1hJywgJzIwMCcsICctaW1hZScsICc8aW5maWxlLm1hZT4nLCAnLW9tYWUnLCAnPG91dGZpbGUubWFlPic=

> <r_epik_Ionization_Penalty>
  0.9716

> <r_epik_Ionization_Penalty_Charging>
  0.0000

> <r_epik_Ionization_Penalty_Neutral>
  0.9716

> <r_epik_State_Penalty>
  1.0073

> <r_epik_Charging_Adjusted_Penalty>
1.00727

> <i_epik_Tot_Q>
0

> <i_epik_Tot_abs_Q>
0

> <s_lp_Force_Field>
OPLS3e

> <r_lp_Energy>
42.0674

> <b_lp_Chiralities_Consistent>
1

> <s_lp_Variant>
/home/yujie/leadopt/data/result/selection/LRRK2/lig_16.sdf:1-2

> <s_i_glide_gridfile>
glide-grid_LRRK2

> <i_i_glide_lignum>
2

> <i_i_glide_rotatable_bonds>
5

> <r_i_docking_score>
-7.24641306901047

> <r_i_glide_ligand_efficiency>
-0.23375526029066

> <r_i_glide_ligand_efficiency_sa>
-0.734314251231253

> <r_i_glide_ligand_efficiency_ln>
-1.63428822295212

> <r_i_glide_gscore>
-8.25368306901047

> <r_i_glide_lipo>
-4.02279842810901

> <r_i_glide_hbond>
0

> <r_i_glide_metal>
-0

> <r_i_glide_rewards>
-1.8754862090785

> <r_i_glide_evdw>
-50.7765693664551

> <r_i_glide_ecoul>
-1.94292092323303

> <r_i_glide_erotb>
0.474868174984739

> <r_i_glide_esite>
0

> <r_i_glide_emodel>
-75.9307041852691

> <r_i_glide_energy>
-52.7194902896881

> <r_i_glide_einternal>
4.48258066177368

> <i_i_glide_confnum>
240

> <i_i_glide_posenum>
377

> <r_i_glide_eff_state_penalty>
1.00727

$$$$
