/home/yujie/leadopt/data/result/selection/LRRK2/lig_7.sdf:1
                    3D
 Schrodinger Suite 2020-3.
 54 58  0  0  1  0            999 V2000
   -0.3934   -2.5519   21.7346 C   0  0  0  0  0  0
    0.0654   -3.5023   20.6477 C   0  0  0  0  0  0
   -0.7273   -4.5129   20.1454 N   0  0  0  0  0  0
   -2.0953   -4.8738   20.5678 C   0  0  0  0  0  0
   -3.0065   -5.1245   19.3373 C   0  0  0  0  0  0
   -4.3501   -5.7454   19.7576 C   0  0  0  0  0  0
   -4.1128   -6.9256   20.5264 O   0  0  0  0  0  0
   -3.4217   -6.6913   21.7512 C   0  0  0  0  0  0
   -2.0176   -6.1352   21.4610 C   0  0  0  0  0  0
   -0.0923   -5.2409   19.2130 N   0  0  0  0  0  0
    1.0809   -4.6748   19.0856 C   0  0  0  0  0  0
    1.2670   -3.5881   19.9500 C   0  0  0  0  0  0
    2.3407   -2.7531   20.1153 N   0  0  0  0  0  0
    3.6527   -2.8377   19.6374 C   0  0  0  0  0  0
    4.0716   -3.9081   18.9079 N   0  0  0  0  0  0
    5.3375   -3.8626   18.4005 C   0  0  0  0  0  0
    5.7867   -4.8929   17.5443 C   0  0  0  0  0  0
    7.0581   -4.8337   16.9506 C   0  0  0  0  0  0
    7.4515   -5.8535   16.0427 N   0  0  0  0  0  0
    6.5383   -6.7535   15.3392 C   0  0  1  0  0  0
    5.6427   -6.0030   14.3320 C   0  0  0  0  0  0
    7.4434   -7.7764   14.6786 C   0  0  0  0  0  0
    8.7370   -7.3585   15.0253 O   0  0  0  0  0  0
    8.7734   -6.2524   15.7883 C   0  0  0  0  0  0
    9.8447   -5.7612   16.1364 O   0  0  0  0  0  0
    7.8967   -3.7473   17.2471 C   0  0  0  0  0  0
    7.4962   -2.7278   18.1033 C   0  0  0  0  0  0
    6.2056   -2.7647   18.6668 C   0  0  0  0  0  0
    5.6702   -1.7490   19.4813 C   0  0  0  0  0  0
    4.4072   -1.7624   19.9570 N   0  0  0  0  0  0
    5.9164   -7.2694   16.0722 H   0  0  0  0  0  0
    0.3935   -1.8538   22.0254 H   0  0  0  0  0  0
   -1.2432   -1.9461   21.4124 H   0  0  0  0  0  0
   -0.6963   -3.0817   22.6394 H   0  0  0  0  0  0
   -2.4749   -4.0211   21.1326 H   0  0  0  0  0  0
   -2.5232   -5.7311   18.5692 H   0  0  0  0  0  0
   -3.2243   -4.1632   18.8612 H   0  0  0  0  0  0
   -4.9341   -6.0097   18.8748 H   0  0  0  0  0  0
   -4.9505   -5.0352   20.3291 H   0  0  0  0  0  0
   -3.3481   -7.6307   22.3000 H   0  0  0  0  0  0
   -3.9917   -6.0064   22.3830 H   0  0  0  0  0  0
   -1.5743   -5.8610   22.4204 H   0  0  0  0  0  0
   -1.3593   -6.8966   21.0374 H   0  0  0  0  0  0
    1.7995   -5.0577   18.3782 H   0  0  0  0  0  0
    2.2123   -1.9074   20.6497 H   0  0  0  0  0  0
    5.1123   -5.7109   17.3424 H   0  0  0  0  0  0
    4.9922   -6.7001   13.8001 H   0  0  0  0  0  0
    4.9976   -5.2699   14.8183 H   0  0  0  0  0  0
    6.2336   -5.4908   13.5716 H   0  0  0  0  0  0
    7.3319   -7.7680   13.5922 H   0  0  0  0  0  0
    7.2504   -8.7760   15.0723 H   0  0  0  0  0  0
    8.8776   -3.6553   16.8040 H   0  0  0  0  0  0
    8.1461   -1.8901   18.3118 H   0  0  0  0  0  0
    6.2795   -0.8931   19.7273 H   0  0  0  0  0  0
  1  2  1  0  0  0
  1 32  1  0  0  0
  1 33  1  0  0  0
  1 34  1  0  0  0
  2  3  1  0  0  0
  2 12  2  0  0  0
  3  4  1  0  0  0
  3 10  1  0  0  0
  4  9  1  0  0  0
  4  5  1  0  0  0
  4 35  1  0  0  0
  5  6  1  0  0  0
  5 36  1  0  0  0
  5 37  1  0  0  0
  6  7  1  0  0  0
  6 38  1  0  0  0
  6 39  1  0  0  0
  7  8  1  0  0  0
  8  9  1  0  0  0
  8 40  1  0  0  0
  8 41  1  0  0  0
  9 42  1  0  0  0
  9 43  1  0  0  0
 10 11  2  0  0  0
 11 12  1  0  0  0
 11 44  1  0  0  0
 12 13  1  0  0  0
 13 14  1  0  0  0
 13 45  1  0  0  0
 14 30  1  0  0  0
 14 15  2  0  0  0
 15 16  1  0  0  0
 16 17  1  0  0  0
 16 28  2  0  0  0
 17 18  2  0  0  0
 17 46  1  0  0  0
 18 19  1  0  0  0
 18 26  1  0  0  0
 19 24  1  0  0  0
 19 20  1  0  0  0
 20 31  1  0  0  0
 20 21  1  0  0  0
 20 22  1  0  0  0
 21 47  1  0  0  0
 21 48  1  0  0  0
 21 49  1  0  0  0
 22 23  1  0  0  0
 22 50  1  0  0  0
 22 51  1  0  0  0
 23 24  1  0  0  0
 24 25  2  0  0  0
 26 27  2  0  0  0
 26 52  1  0  0  0
 27 28  1  0  0  0
 27 53  1  0  0  0
 28 29  1  0  0  0
 29 30  2  0  0  0
 29 54  1  0  0  0
M  END
> <s_m_source_file>
/home/yujie/leadopt/data/result/selection/LRRK2/lig_7.sdf

> <i_m_source_file_index>
1

> <i_lp_mmshare_version>
51139

> <i_f3d_flags>
0

> <s_epik_input>
W0NIMl0xW0NIMl1PW0NIMl1bQ0gyXVtDSF0xbihjMltDSDNdKW5bY0hdYzJbTkhdYyhuMyluW2NIXWMoYzM0KVtjSF1bY0hdYyhbY0hdNClONVtDQEBIXShbQ0gzXSlbQ0gyXU9DNT1P

> <s_epik_cmdline>
J2VwaWtfcHl0aG9uJywgJy1waHQnLCAnMi4wJywgJy1waCcsICc3LjAnLCAnLXRuJywgJzgnLCAnLW1hJywgJzIwMCcsICctaW1hZScsICc8aW5maWxlLm1hZT4nLCAnLW9tYWUnLCAnPG91dGZpbGUubWFlPic=

> <r_epik_Ionization_Penalty>
  0.0027

> <r_epik_Ionization_Penalty_Charging>
  0.0000

> <r_epik_Ionization_Penalty_Neutral>
  0.0027

> <r_epik_State_Penalty>
  0.0018

> <r_epik_Charging_Adjusted_Penalty>
0.00178555

> <i_epik_Tot_Q>
0

> <i_epik_Tot_abs_Q>
0

> <s_epik_Chemistry_Notes>
This compound has an ester and may undergo hydrolysis at high or low pH.

> <s_lp_Force_Field>
OPLS3e

> <r_lp_Energy>
11.6913

> <b_lp_Chiralities_Consistent>
1

> <s_lp_Variant>
/home/yujie/leadopt/data/result/selection/LRRK2/lig_7.sdf:1-1

> <s_i_glide_gridfile>
glide-grid_LRRK2

> <i_i_glide_lignum>
1

> <i_i_glide_rotatable_bonds>
4

> <r_i_docking_score>
-9.31871456077518

> <r_i_glide_ligand_efficiency>
-0.310623818692506

> <r_i_glide_ligand_efficiency_sa>
-0.965180425470616

> <r_i_glide_ligand_efficiency_ln>
-2.11731348373562

> <r_i_glide_gscore>
-9.32050011077518

> <r_i_glide_lipo>
-3.52582021378236

> <r_i_glide_hbond>
-0.192560022472864

> <r_i_glide_metal>
-0

> <r_i_glide_rewards>
-2.95515341686095

> <r_i_glide_evdw>
-50.191234588623

> <r_i_glide_ecoul>
-4.06190061569214

> <r_i_glide_erotb>
0.471880364125969

> <r_i_glide_esite>
0

> <r_i_glide_emodel>
-84.4521069999975

> <r_i_glide_energy>
-54.2531352043152

> <r_i_glide_einternal>
0.758515894412994

> <i_i_glide_confnum>
26

> <i_i_glide_posenum>
163

> <r_i_glide_eff_state_penalty>
0.00178555

$$$$
