@<TRIPOS>MOLECULE
/home/yujie/leadopt/data/result/selection/LRRK2/lig_20.sdf:1
59   64    1
SMALL
USER_CHARGES


@<TRIPOS>ATOM
      1 Cl1         9.1252   -4.3441   15.5906 Cl        1 UNK         0.0000 
      2 C2          7.6662   -4.3361   16.5256 C.ar      1 UNK         0.0000 
      3 C3          7.5310   -3.3274   17.4802 C.ar      1 UNK         0.0000 
      4 C4          6.3316   -3.2052   18.2147 C.ar      1 UNK         0.0000 
      5 C5          5.3026   -4.1733   18.0519 C.ar      1 UNK         0.0000 
      6 C6          5.4813   -5.2086   17.1140 C.ar      1 UNK         0.0000 
      7 C7          6.6267   -5.2641   16.3099 C.ar      1 UNK         0.0000 
      8 C8          6.6416   -6.2554   15.1334 C.3       1 UNK         0.0000 
      9 C9          6.6340   -7.7511   15.5298 C.3       1 UNK         0.0000 
     10 F10         5.5333   -8.0669   16.2163 F         1 UNK         0.0000 
     11 C11         6.6910   -8.6641   14.2848 C.3       1 UNK         0.0000 
     12 N12         5.5059   -8.3515   13.3231 N.4       1 UNK         0.0000 
     13 C13         5.5742   -9.2548   12.0549 C.3       1 UNK         0.0000 
     14 C14         5.3752  -10.7489   12.2954 C.3       1 UNK         0.0000 
     15 C15         3.9395  -11.0163   11.8712 C.3       1 UNK         0.0000 
     16 O16         3.8170  -10.1965   10.7217 O.3       1 UNK         0.0000 
     17 C17         4.5137   -8.9760   10.9598 C.3       1 UNK         0.0000 
     18 C18         5.5350   -6.8567   12.9094 C.3       1 UNK         0.0000 
     19 C19         5.5044   -5.9398   14.1380 C.3       1 UNK         0.0000 
     20 N20         4.1151   -4.0774   18.7127 N.ar      1 UNK         0.0000 
     21 C21         3.9194   -2.9743   19.4869 C.ar      1 UNK         0.0000 
     22 N22         2.6703   -2.7487   20.0793 N.pl3     1 UNK         0.0000 
     23 C23         1.4940   -3.4549   19.9706 C.ar      1 UNK         0.0000 
     24 C24         0.3569   -3.2680   20.7430 C.ar      1 UNK         0.0000 
     25 Cl25        0.0410   -2.1627   22.0280 Cl        1 UNK         0.0000 
     26 N26        -0.5813   -4.1618   20.2863 N.pl3     1 UNK         0.0000 
     27 C27        -1.9630   -4.3102   20.7511 C.3       1 UNK         0.0000 
     28 C28        -2.9214   -5.3081   20.1078 C.3       1 UNK         0.0000 
     29 C29        -2.3647   -5.5734   21.4787 C.3       1 UNK         0.0000 
     30 F30        -3.1903   -5.4588   22.5177 F         1 UNK         0.0000 
     31 F31        -1.4852   -6.5665   21.6023 F         1 UNK         0.0000 
     32 N32        -0.1087   -4.9196   19.2869 N.2       1 UNK         0.0000 
     33 C33         1.1175   -4.4930   19.0983 C.ar      1 UNK         0.0000 
     34 N34         4.8364   -2.0021   19.7174 N.ar      1 UNK         0.0000 
     35 C35         6.0292   -2.1392   19.0882 C.ar      1 UNK         0.0000 
     36 H36         8.3129   -2.5939   17.6154 H         1 UNK         0.0000 
     37 H37         4.6667   -5.9029   16.9671 H         1 UNK         0.0000 
     38 H38         7.5721   -6.0977   14.5935 H         1 UNK         0.0000 
     39 H39         7.4914   -7.9634   16.1703 H         1 UNK         0.0000 
     40 H40         7.6132   -8.5235   13.7155 H         1 UNK         0.0000 
     41 H41         6.6219   -9.7085   14.5881 H         1 UNK         0.0000 
     42 H42         6.5796   -9.0587   11.6694 H         1 UNK         0.0000 
     43 H43         6.0579  -11.3243   11.6680 H         1 UNK         0.0000 
     44 H44         5.5276  -11.0683   13.3237 H         1 UNK         0.0000 
     45 H45         3.7549  -12.0622   11.6230 H         1 UNK         0.0000 
     46 H46         3.1934  -10.7377   12.6181 H         1 UNK         0.0000 
     47 H47         3.7649   -8.2514   11.2743 H         1 UNK         0.0000 
     48 H48         4.9651   -8.6060   10.0382 H         1 UNK         0.0000 
     49 H49         6.4265   -6.7120   12.2974 H         1 UNK         0.0000 
     50 H50         4.6679   -6.6415   12.2860 H         1 UNK         0.0000 
     51 H51         4.5253   -6.0249   14.6118 H         1 UNK         0.0000 
     52 H52         5.6069   -4.9153   13.7753 H         1 UNK         0.0000 
     53 H53         2.6684   -1.9034   20.6279 H         1 UNK         0.0000 
     54 H54        -2.4006   -3.3667   21.0801 H         1 UNK         0.0000 
     55 H55        -2.5892   -5.9360   19.2803 H         1 UNK         0.0000 
     56 H56        -3.9740   -5.0404   20.0126 H         1 UNK         0.0000 
     57 H57         1.7347   -4.9342   18.3300 H         1 UNK         0.0000 
     58 H58         6.7603   -1.3635   19.2610 H         1 UNK         0.0000 
     59 H59         4.6417   -8.5252   13.8196 H         1 UNK         0.0000 
@<TRIPOS>BOND
     1    1    2 1    
     2    2    7 ar   
     3    2    3 ar   
     4    3    4 ar   
     5    3   36 1    
     6    4   35 ar   
     7    4    5 ar   
     8    5    6 ar   
     9    5   20 ar   
    10    6    7 ar   
    11    6   37 1    
    12    7    8 1    
    13    8   19 1    
    14    8    9 1    
    15    8   38 1    
    16    9   10 1    
    17    9   11 1    
    18    9   39 1    
    19   11   12 1    
    20   11   40 1    
    21   11   41 1    
    22   12   13 1    
    23   12   18 1    
    24   12   59 1    
    25   13   17 1    
    26   13   14 1    
    27   13   42 1    
    28   14   15 1    
    29   14   43 1    
    30   14   44 1    
    31   15   16 1    
    32   15   45 1    
    33   15   46 1    
    34   16   17 1    
    35   17   47 1    
    36   17   48 1    
    37   18   19 1    
    38   18   49 1    
    39   18   50 1    
    40   19   51 1    
    41   19   52 1    
    42   20   21 ar   
    43   21   22 1    
    44   21   34 ar   
    45   22   23 1    
    46   22   53 1    
    47   23   33 ar   
    48   23   24 ar   
    49   24   25 1    
    50   24   26 ar   
    51   26   27 1    
    52   26   32 ar   
    53   27   29 1    
    54   27   28 1    
    55   27   54 1    
    56   28   29 1    
    57   28   55 1    
    58   28   56 1    
    59   29   30 1    
    60   29   31 1    
    61   32   33 ar   
    62   33   57 1    
    63   34   35 ar   
    64   35   58 1    
@<TRIPOS>SUBSTRUCTURE
     1 UNK         1 GROUP             0       ****    0 ROOT    
