/home/yujie/leadopt/data/result/selection/LRRK2/lig_19.sdf:1
                    3D
 Schrodinger Suite 2020-3.
 55 60  0  0  1  0            999 V2000
    8.7641   -4.4992   15.9179 Cl  0  0  0  0  0  0
    7.2884   -4.4318   16.8237 C   0  0  0  0  0  0
    7.1564   -3.3872   17.7380 C   0  0  0  0  0  0
    5.9475   -3.2142   18.4441 C   0  0  0  0  0  0
    5.6581   -2.1122   19.2798 C   0  0  0  0  0  0
    4.4607   -1.9306   19.8856 N   0  0  0  0  0  0
    3.5301   -2.8938   19.6780 C   0  0  0  0  0  0
    2.2931   -2.6438   20.2819 N   0  0  0  0  0  0
    1.1333   -3.3823   20.2557 C   0  0  0  0  0  0
    0.0507   -3.2327   21.1078 C   0  0  0  0  0  0
   -0.2044   -2.1628   22.4322 Cl  0  0  0  0  0  0
   -0.8815   -4.1628   20.7211 N   0  0  0  0  0  0
   -2.1826   -4.4210   21.3243 C   0  0  1  0  0  0
   -3.2688   -3.3601   21.2260 C   0  0  0  0  0  0
   -3.4008   -4.6396   20.4481 C   0  0  0  0  0  0
   -4.3133   -5.5208   20.8546 F   0  0  0  0  0  0
   -3.2859   -4.5630   19.1222 F   0  0  0  0  0  0
   -0.4553   -4.9194   19.7041 N   0  0  0  0  0  0
    0.7345   -4.4432   19.4211 C   0  0  0  0  0  0
    3.7069   -4.0182   18.9313 N   0  0  0  0  0  0
    4.8978   -4.1629   18.2863 C   0  0  0  0  0  0
    5.0650   -5.2293   17.3789 C   0  0  0  0  0  0
    6.2346   -5.3463   16.6169 C   0  0  0  0  0  0
    6.2817   -6.3894   15.4877 C   0  0  1  0  0  0
    5.7880   -7.8034   15.8720 C   0  0  0  0  0  0
    5.8998   -8.7779   14.6774 C   0  0  0  0  0  0
    5.1914   -8.2960   13.4782 N   0  0  1  0  0  0
    5.4126   -9.2034   12.3409 C   0  0  0  0  0  0
    4.7372  -10.5852   12.4122 C   0  0  0  0  0  0
    3.9054  -10.2845   11.2136 O   0  0  0  0  0  0
    4.5721   -8.9629   11.0726 C   0  0  0  0  0  0
    5.5819   -6.9281   13.0984 C   0  0  0  0  0  0
    5.4862   -5.9155   14.2540 C   0  0  2  0  0  0
    5.9334   -4.7326   13.8287 F   0  0  0  0  0  0
    7.9552   -2.6695   17.8630 H   0  0  0  0  0  0
    6.3996   -1.3396   19.4314 H   0  0  0  0  0  0
    2.2911   -1.7659   20.7776 H   0  0  0  0  0  0
   -2.1083   -4.9819   22.2562 H   0  0  0  0  0  0
   -3.0619   -2.4351   20.6861 H   0  0  0  0  0  0
   -3.9217   -3.1933   22.0821 H   0  0  0  0  0  0
    1.3126   -4.8695   18.6149 H   0  0  0  0  0  0
    4.2323   -5.9004   17.2295 H   0  0  0  0  0  0
    7.3245   -6.5067   15.1956 H   0  0  0  0  0  0
    6.3983   -8.2049   16.6816 H   0  0  0  0  0  0
    4.7543   -7.8146   16.2208 H   0  0  0  0  0  0
    5.5093   -9.7561   14.9619 H   0  0  0  0  0  0
    6.9527   -8.9330   14.4334 H   0  0  0  0  0  0
    6.4842   -9.2509   12.1327 H   0  0  0  0  0  0
    5.3838  -11.4377   12.2017 H   0  0  0  0  0  0
    4.0815  -10.7562   13.2672 H   0  0  0  0  0  0
    3.8183   -8.1783   11.1324 H   0  0  0  0  0  0
    5.1347   -8.9359   10.1397 H   0  0  0  0  0  0
    4.9508   -6.5775   12.2852 H   0  0  0  0  0  0
    6.6002   -6.9473   12.7051 H   0  0  0  0  0  0
    4.4354   -5.7890   14.5192 H   0  0  0  0  0  0
  1  2  1  0  0  0
  2 23  1  0  0  0
  2  3  2  0  0  0
  3  4  1  0  0  0
  3 35  1  0  0  0
  4 21  1  0  0  0
  4  5  2  0  0  0
  5  6  1  0  0  0
  5 36  1  0  0  0
  6  7  2  0  0  0
  7  8  1  0  0  0
  7 20  1  0  0  0
  8  9  1  0  0  0
  8 37  1  0  0  0
  9 19  1  0  0  0
  9 10  2  0  0  0
 10 11  1  0  0  0
 10 12  1  0  0  0
 12 13  1  0  0  0
 12 18  1  0  0  0
 13 15  1  0  0  0
 13 14  1  0  0  0
 13 38  1  0  0  0
 14 15  1  0  0  0
 14 39  1  0  0  0
 14 40  1  0  0  0
 15 16  1  0  0  0
 15 17  1  0  0  0
 18 19  2  0  0  0
 19 41  1  0  0  0
 20 21  2  0  0  0
 21 22  1  0  0  0
 22 23  2  0  0  0
 22 42  1  0  0  0
 23 24  1  0  0  0
 24 33  1  0  0  0
 24 25  1  0  0  0
 24 43  1  0  0  0
 25 26  1  0  0  0
 25 44  1  0  0  0
 25 45  1  0  0  0
 26 27  1  0  0  0
 26 46  1  0  0  0
 26 47  1  0  0  0
 27 28  1  0  0  0
 27 32  1  0  0  0
 28 31  1  0  0  0
 28 29  1  0  0  0
 28 48  1  0  0  0
 29 30  1  0  0  0
 29 49  1  0  0  0
 29 50  1  0  0  0
 30 31  1  0  0  0
 31 51  1  0  0  0
 31 52  1  0  0  0
 32 33  1  0  0  0
 32 53  1  0  0  0
 32 54  1  0  0  0
 33 34  1  0  0  0
 33 55  1  0  0  0
M  END
> <s_m_source_file>
/home/yujie/leadopt/data/result/selection/LRRK2/lig_19.sdf

> <i_m_source_file_index>
1

> <i_lp_mmshare_version>
51139

> <i_f3d_flags>
0

> <s_epik_input>
W0NIMl0xT1tDSDJdW0NIXTFOKFtDSDJdW0NAQEhdMkYpW0NIMl1bQ0gyXVtDQEBIXTJjKGMoQ2wpW2NIXTMpW2NIXWMoYzM0KW5jKG5bY0hdNClbTkhdYzVjKENsKW4oW0NAQEhdKFtDSDJdNilDNihGKUYpbltjSF01

> <s_epik_cmdline>
J2VwaWtfcHl0aG9uJywgJy1waHQnLCAnMi4wJywgJy1waCcsICc3LjAnLCAnLXRuJywgJzgnLCAnLW1hJywgJzIwMCcsICctaW1hZScsICc8aW5maWxlLm1hZT4nLCAnLW9tYWUnLCAnPG91dGZpbGUubWFlPic=

> <r_epik_Ionization_Penalty>
  0.0545

> <r_epik_Ionization_Penalty_Charging>
  0.0000

> <r_epik_Ionization_Penalty_Neutral>
  0.0545

> <r_epik_State_Penalty>
  0.0468

> <r_epik_Charging_Adjusted_Penalty>
0.0468339

> <i_epik_Tot_Q>
0

> <i_epik_Tot_abs_Q>
0

> <s_lp_Force_Field>
OPLS3e

> <r_lp_Energy>
29.8477

> <b_lp_Chiralities_Consistent>
1

> <s_lp_Variant>
/home/yujie/leadopt/data/result/selection/LRRK2/lig_19.sdf:1-1

> <s_i_glide_gridfile>
glide-grid_LRRK2

> <i_i_glide_lignum>
1

> <i_i_glide_rotatable_bonds>
5

> <r_i_docking_score>
-8.31181808379026

> <r_i_glide_ligand_efficiency>
-0.244465237758537

> <r_i_glide_ligand_efficiency_sa>
-0.791972468313736

> <r_i_glide_ligand_efficiency_ln>
-1.83631375330959

> <r_i_glide_gscore>
-8.35865198379026

> <r_i_glide_lipo>
-3.71658564804679

> <r_i_glide_hbond>
-0.0405869434195229

> <r_i_glide_metal>
-0

> <r_i_glide_rewards>
-1.73622269071987

> <r_i_glide_evdw>
-50.7707443237305

> <r_i_glide_ecoul>
-4.65350818634033

> <r_i_glide_erotb>
0.389068475267825

> <r_i_glide_esite>
-0.0177617327343271

> <r_i_glide_emodel>
-81.6822688392852

> <r_i_glide_energy>
-55.4242525100708

> <r_i_glide_einternal>
0.890140354633331

> <i_i_glide_confnum>
3

> <i_i_glide_posenum>
329

> <r_i_glide_eff_state_penalty>
0.0468339

$$$$
