@<TRIPOS>MOLECULE
/home/yujie/leadopt/data/result/selection/LRRK2/lig_9.sdf:1
50   54    1
SMALL
USER_CHARGES


@<TRIPOS>ATOM
      1 C1         -0.5066   -2.5638   21.7640 C.3       1 UNK         0.0000 
      2 C2         -0.0293   -3.4951   20.6646 C.ar      1 UNK         0.0000 
      3 N3         -0.8085   -4.5115   20.1479 N.pl3     1 UNK         0.0000 
      4 C4         -2.1695   -4.9024   20.5673 C.3       1 UNK         0.0000 
      5 C5         -3.0451   -5.2944   19.3460 C.3       1 UNK         0.0000 
      6 C6         -4.3777   -5.9182   19.8022 C.3       1 UNK         0.0000 
      7 O7         -4.1157   -7.0237   20.6670 O.3       1 UNK         0.0000 
      8 C8         -3.4415   -6.6738   21.8750 C.3       1 UNK         0.0000 
      9 C9         -2.0528   -6.0912   21.5492 C.3       1 UNK         0.0000 
     10 N10        -0.1611   -5.2168   19.2080 N.2       1 UNK         0.0000 
     11 C11         0.9989   -4.6267   19.0844 C.ar      1 UNK         0.0000 
     12 C12         1.1744   -3.5523   19.9704 C.ar      1 UNK         0.0000 
     13 N13         2.2518   -2.7119   20.1388 N.pl3     1 UNK         0.0000 
     14 C14         3.5605   -2.8174   19.6500 C.ar      1 UNK         0.0000 
     15 N15         3.9339   -3.9046   18.9225 N.ar      1 UNK         0.0000 
     16 C16         5.1959   -3.9130   18.4075 C.ar      1 UNK         0.0000 
     17 C17         5.5831   -4.9557   17.5351 C.ar      1 UNK         0.0000 
     18 C18         6.8522   -4.9628   16.9395 C.ar      1 UNK         0.0000 
     19 C19         7.2319   -6.0502   15.9168 C.3       1 UNK         0.0000 
     20 C20         6.5075   -7.3863   15.8677 C.3       1 UNK         0.0000 
     21 C21         6.2724   -6.3687   14.7825 C.3       1 UNK         0.0000 
     22 C22         8.6616   -6.1110   15.5557 C.1       1 UNK         0.0000 
     23 N23         9.7834   -6.1618   15.2749 N.1       1 UNK         0.0000 
     24 C24         7.7568   -3.9424   17.2627 C.ar      1 UNK         0.0000 
     25 C25         7.4105   -2.9026   18.1216 C.ar      1 UNK         0.0000 
     26 C26         6.1143   -2.8588   18.6776 C.ar      1 UNK         0.0000 
     27 C27         5.6196   -1.8023   19.4719 C.ar      1 UNK         0.0000 
     28 N28         4.3553   -1.7624   19.9514 N.ar      1 UNK         0.0000 
     29 H29         0.2835   -1.8865   22.0938 H         1 UNK         0.0000 
     30 H30        -1.3389   -1.9414   21.4374 H         1 UNK         0.0000 
     31 H31        -0.8392   -3.1142   22.6438 H         1 UNK         0.0000 
     32 H32        -2.5969   -4.0230   21.0529 H         1 UNK         0.0000 
     33 H33        -3.2861   -4.3973   18.7737 H         1 UNK         0.0000 
     34 H34        -2.5274   -5.9581   18.6502 H         1 UNK         0.0000 
     35 H35        -5.0047   -5.1789   20.3063 H         1 UNK         0.0000 
     36 H36        -4.9413   -6.2709   18.9365 H         1 UNK         0.0000 
     37 H37        -4.0425   -5.9643   22.4502 H         1 UNK         0.0000 
     38 H38        -3.3388   -7.5689   22.4928 H         1 UNK         0.0000 
     39 H39        -1.3733   -6.8588   21.1750 H         1 UNK         0.0000 
     40 H40        -1.6268   -5.7405   22.4902 H         1 UNK         0.0000 
     41 H41         1.7188   -4.9901   18.3650 H         1 UNK         0.0000 
     42 H42         2.1248   -1.8692   20.6785 H         1 UNK         0.0000 
     43 H43         4.8579   -5.7203   17.3064 H         1 UNK         0.0000 
     44 H44         5.7025   -7.6045   16.5686 H         1 UNK         0.0000 
     45 H45         7.0806   -8.2839   15.6265 H         1 UNK         0.0000 
     46 H46         6.6769   -6.5654   13.7896 H         1 UNK         0.0000 
     47 H47         5.3110   -5.8562   14.7442 H         1 UNK         0.0000 
     48 H48         8.7476   -3.9305   16.8350 H         1 UNK         0.0000 
     49 H49         8.1149   -2.1127   18.3381 H         1 UNK         0.0000 
     50 H50         6.2596   -0.9635   19.7072 H         1 UNK         0.0000 
@<TRIPOS>BOND
     1    1    2 1    
     2    1   29 1    
     3    1   30 1    
     4    1   31 1    
     5    2    3 ar   
     6    2   12 ar   
     7    3    4 1    
     8    3   10 ar   
     9    4    9 1    
    10    4    5 1    
    11    4   32 1    
    12    5    6 1    
    13    5   33 1    
    14    5   34 1    
    15    6    7 1    
    16    6   35 1    
    17    6   36 1    
    18    7    8 1    
    19    8    9 1    
    20    8   37 1    
    21    8   38 1    
    22    9   39 1    
    23    9   40 1    
    24   10   11 ar   
    25   11   12 ar   
    26   11   41 1    
    27   12   13 1    
    28   13   14 1    
    29   13   42 1    
    30   14   28 ar   
    31   14   15 ar   
    32   15   16 ar   
    33   16   17 ar   
    34   16   26 ar   
    35   17   18 ar   
    36   17   43 1    
    37   18   19 1    
    38   18   24 ar   
    39   19   21 1    
    40   19   20 1    
    41   19   22 1    
    42   20   21 1    
    43   20   44 1    
    44   20   45 1    
    45   21   46 1    
    46   21   47 1    
    47   22   23 3    
    48   24   25 ar   
    49   24   48 1    
    50   25   26 ar   
    51   25   49 1    
    52   26   27 ar   
    53   27   28 ar   
    54   27   50 1    
@<TRIPOS>SUBSTRUCTURE
     1 UNK         1 GROUP             0       ****    0 ROOT    
