@<TRIPOS>MOLECULE
/home/yujie/leadopt/data/result/selection/LRRK2/lig_10.sdf:1
54   59    1
SMALL
USER_CHARGES


@<TRIPOS>ATOM
      1 C1         -0.1987   -2.4155   21.9129 C.3       1 UNK         0.0000 
      2 C2          0.1134   -3.3583   20.7670 C.ar      1 UNK         0.0000 
      3 N3         -0.7713   -4.3219   20.3201 N.pl3     1 UNK         0.0000 
      4 C4         -2.1089   -4.6526   20.8585 C.3       1 UNK         0.0000 
      5 C5         -3.1500   -4.7634   19.7103 C.3       1 UNK         0.0000 
      6 C6         -4.4763   -5.3642   20.2086 C.3       1 UNK         0.0000 
      7 O7         -4.2274   -6.6196   20.8414 O.3       1 UNK         0.0000 
      8 C8         -3.4124   -6.5213   22.0054 C.3       1 UNK         0.0000 
      9 C9         -2.0170   -5.9903   21.6320 C.3       1 UNK         0.0000 
     10 N10        -0.2643   -5.0462   19.3107 N.2       1 UNK         0.0000 
     11 C11         0.9175   -4.5336   19.0916 C.ar      1 UNK         0.0000 
     12 C12         1.2480   -3.4839   19.9665 C.ar      1 UNK         0.0000 
     13 N13         2.3965   -2.7202   20.0407 N.pl3     1 UNK         0.0000 
     14 C14         3.6638   -2.9652   19.4854 C.ar      1 UNK         0.0000 
     15 N15         3.8786   -4.1214   18.8060 N.ar      1 UNK         0.0000 
     16 C16         5.0804   -4.2759   18.1885 C.ar      1 UNK         0.0000 
     17 C17         5.2786   -5.4005   17.3645 C.ar      1 UNK         0.0000 
     18 C18         6.4736   -5.5727   16.6546 C.ar      1 UNK         0.0000 
     19 C19         6.6488   -6.7689   15.7027 C.3       1 UNK         0.0000 
     20 C20         5.6225   -6.9888   14.6089 C.3       1 UNK         0.0000 
     21 C21         5.5455   -7.0392   13.1027 C.3       1 UNK         0.0000 
     22 C22         4.5730   -6.1808   13.8860 C.3       1 UNK         0.0000 
     23 C23         5.7097   -7.9768   15.7353 C.3       1 UNK         0.0000 
     24 C24         8.0430   -7.1106   15.3545 C.1       1 UNK         0.0000 
     25 N25         9.1325   -7.3842   15.0854 N.1       1 UNK         0.0000 
     26 C26         7.4933   -4.6221   16.8051 C.ar      1 UNK         0.0000 
     27 C27         7.3337   -3.5003   17.6204 C.ar      1 UNK         0.0000 
     28 C28         6.1110   -3.3019   18.3026 C.ar      1 UNK         0.0000 
     29 C29         5.7914   -2.1685   19.0860 C.ar      1 UNK         0.0000 
     30 N30         4.5803   -1.9827   19.6729 N.ar      1 UNK         0.0000 
     31 H31         0.6423   -1.7622   22.1454 H         1 UNK         0.0000 
     32 H32        -1.0444   -1.7647   21.6828 H         1 UNK         0.0000 
     33 H33        -0.4416   -2.9595   22.8287 H         1 UNK         0.0000 
     34 H34        -2.3797   -3.8330   21.5257 H         1 UNK         0.0000 
     35 H35        -3.3726   -3.7623   19.3416 H         1 UNK         0.0000 
     36 H36        -2.7727   -5.3204   18.8502 H         1 UNK         0.0000 
     37 H37        -4.9815   -4.6857   20.9000 H         1 UNK         0.0000 
     38 H38        -5.1589   -5.5188   19.3711 H         1 UNK         0.0000 
     39 H39        -3.8902   -5.8774   22.7468 H         1 UNK         0.0000 
     40 H40        -3.3271   -7.5097   22.4610 H         1 UNK         0.0000 
     41 H41        -1.4382   -6.7408   21.0873 H         1 UNK         0.0000 
     42 H42        -1.4731   -5.8226   22.5644 H         1 UNK         0.0000 
     43 H43         1.5415   -4.9278   18.3034 H         1 UNK         0.0000 
     44 H44         2.3740   -1.8541   20.5553 H         1 UNK         0.0000 
     45 H45         4.4617   -6.0985   17.2628 H         1 UNK         0.0000 
     46 H46         5.1849   -7.9554   12.6346 H         1 UNK         0.0000 
     47 H47         6.3331   -6.5619   12.5163 H         1 UNK         0.0000 
     48 H48         4.6805   -5.0940   13.8614 H         1 UNK         0.0000 
     49 H49         3.5294   -6.4921   13.9696 H         1 UNK         0.0000 
     50 H50         4.8819   -8.0418   16.4402 H         1 UNK         0.0000 
     51 H51         6.1102   -8.9638   15.5040 H         1 UNK         0.0000 
     52 H52         8.4244   -4.7341   16.2707 H         1 UNK         0.0000 
     53 H53         8.1239   -2.7668   17.7081 H         1 UNK         0.0000 
     54 H54         6.5212   -1.3811   19.2206 H         1 UNK         0.0000 
@<TRIPOS>BOND
     1    1    2 1    
     2    1   31 1    
     3    1   32 1    
     4    1   33 1    
     5    2    3 ar   
     6    2   12 ar   
     7    3    4 1    
     8    3   10 ar   
     9    4    9 1    
    10    4    5 1    
    11    4   34 1    
    12    5    6 1    
    13    5   35 1    
    14    5   36 1    
    15    6    7 1    
    16    6   37 1    
    17    6   38 1    
    18    7    8 1    
    19    8    9 1    
    20    8   39 1    
    21    8   40 1    
    22    9   41 1    
    23    9   42 1    
    24   10   11 ar   
    25   11   12 ar   
    26   11   43 1    
    27   12   13 1    
    28   13   14 1    
    29   13   44 1    
    30   14   30 ar   
    31   14   15 ar   
    32   15   16 ar   
    33   16   17 ar   
    34   16   28 ar   
    35   17   18 ar   
    36   17   45 1    
    37   18   19 1    
    38   18   26 ar   
    39   19   23 1    
    40   19   20 1    
    41   19   24 1    
    42   20   22 1    
    43   20   21 1    
    44   20   23 1    
    45   21   22 1    
    46   21   46 1    
    47   21   47 1    
    48   22   48 1    
    49   22   49 1    
    50   23   50 1    
    51   23   51 1    
    52   24   25 3    
    53   26   27 ar   
    54   26   52 1    
    55   27   28 ar   
    56   27   53 1    
    57   28   29 ar   
    58   29   30 ar   
    59   29   54 1    
@<TRIPOS>SUBSTRUCTURE
     1 UNK         1 GROUP             0       ****    0 ROOT    
