@<TRIPOS>MOLECULE
/home/yujie/leadopt/data/result/selection/LRRK2/lig_17.sdf:1
56   61    1
SMALL
USER_CHARGES


@<TRIPOS>ATOM
      1 Cl1         8.7019   -4.6763   16.2689 Cl        1 UNK         0.0000 
      2 C2          7.1918   -4.5285   17.1057 C.ar      1 UNK         0.0000 
      3 C3          7.0596   -3.4594   17.9960 C.ar      1 UNK         0.0000 
      4 C4          5.8326   -3.2402   18.6599 C.ar      1 UNK         0.0000 
      5 C5          5.5345   -2.1224   19.4771 C.ar      1 UNK         0.0000 
      6 N6          4.3117   -1.8980   20.0149 N.ar      1 UNK         0.0000 
      7 C7          4.7670   -4.1626   18.4718 C.ar      1 UNK         0.0000 
      8 C8          4.9341   -5.2495   17.5915 C.ar      1 UNK         0.0000 
      9 C9          6.1239   -5.4221   16.8732 C.ar      1 UNK         0.0000 
     10 C10         6.2369   -6.5278   15.7991 C.3       1 UNK         0.0000 
     11 C11         5.3614   -7.8024   15.9956 C.3       1 UNK         0.0000 
     12 F12         4.0591   -7.5271   15.8915 F         1 UNK         0.0000 
     13 C13         5.6560   -8.8651   14.9124 C.3       1 UNK         0.0000 
     14 N14         5.4038   -8.2503   13.5079 N.4       1 UNK         0.0000 
     15 C15         5.6098   -9.2278   12.3170 C.3       1 UNK         0.0000 
     16 C16         6.9432   -9.9812   12.2041 C.3       1 UNK         0.0000 
     17 O17         6.2338  -11.2914   12.2849 O.3       1 UNK         0.0000 
     18 C18         4.9145  -10.5962   12.3522 C.3       1 UNK         0.0000 
     19 C19         6.2961   -7.0082   13.2851 C.3       1 UNK         0.0000 
     20 C20         6.0224   -5.9550   14.3783 C.3       1 UNK         0.0000 
     21 N21         3.5573   -3.9822   19.0628 N.ar      1 UNK         0.0000 
     22 C22         3.3664   -2.8418   19.7743 C.ar      1 UNK         0.0000 
     23 N23         2.0925   -2.5656   20.2856 N.pl3     1 UNK         0.0000 
     24 C24         0.9526   -3.3369   20.2466 C.ar      1 UNK         0.0000 
     25 C25        -0.1403   -3.2251   21.0913 C.ar      1 UNK         0.0000 
     26 Cl26       -0.4438   -2.1619   22.4102 Cl        1 UNK         0.0000 
     27 N27        -1.0349   -4.1883   20.6957 N.pl3     1 UNK         0.0000 
     28 C28        -2.3559   -4.4663   21.2421 C.3       1 UNK         0.0000 
     29 C29        -2.7358   -5.8982   21.5733 C.3       1 UNK         0.0000 
     30 C30        -2.4638   -4.9164   22.6843 C.3       1 UNK         0.0000 
     31 N31        -0.5929   -4.9036   19.6572 N.2       1 UNK         0.0000 
     32 C32         0.5885   -4.3975   19.3952 C.ar      1 UNK         0.0000 
     33 H33         7.8751   -2.7641   18.1403 H         1 UNK         0.0000 
     34 H34         6.2851   -1.3621   19.6455 H         1 UNK         0.0000 
     35 H35         4.0841   -5.8974   17.4559 H         1 UNK         0.0000 
     36 H36         7.2696   -6.8726   15.8722 H         1 UNK         0.0000 
     37 H37         5.5330   -8.2284   16.9857 H         1 UNK         0.0000 
     38 H38         6.6915   -9.2051   14.9545 H         1 UNK         0.0000 
     39 H39         5.0041   -9.7301   15.0318 H         1 UNK         0.0000 
     40 H40         5.3552   -8.6267   11.4408 H         1 UNK         0.0000 
     41 H41         7.4481   -9.8952   11.2395 H         1 UNK         0.0000 
     42 H42         7.6373   -9.8905   13.0389 H         1 UNK         0.0000 
     43 H43         4.4020  -10.8760   13.2725 H         1 UNK         0.0000 
     44 H44         4.3331  -10.8496   11.4641 H         1 UNK         0.0000 
     45 H45         7.3295   -7.3638   13.3051 H         1 UNK         0.0000 
     46 H46         6.0832   -6.6149   12.2870 H         1 UNK         0.0000 
     47 H47         5.0066   -5.5697   14.2684 H         1 UNK         0.0000 
     48 H48         6.7038   -5.1221   14.2002 H         1 UNK         0.0000 
     49 H49         2.0505   -1.6662   20.7417 H         1 UNK         0.0000 
     50 H50        -3.1235   -3.7953   20.8545 H         1 UNK         0.0000 
     51 H51        -2.0153   -6.6948   21.3813 H         1 UNK         0.0000 
     52 H52        -3.7604   -6.2159   21.3784 H         1 UNK         0.0000 
     53 H53        -3.2939   -4.5359   23.2796 H         1 UNK         0.0000 
     54 H54        -1.5505   -5.0151   23.2736 H         1 UNK         0.0000 
     55 H55         1.1817   -4.7940   18.5852 H         1 UNK         0.0000 
     56 H56         4.4427   -7.9324   13.4932 H         1 UNK         0.0000 
@<TRIPOS>BOND
     1    1    2 1    
     2    2    9 ar   
     3    2    3 ar   
     4    3    4 ar   
     5    3   33 1    
     6    4    5 ar   
     7    4    7 ar   
     8    5    6 ar   
     9    5   34 1    
    10    6   22 ar   
    11    7    8 ar   
    12    7   21 ar   
    13    8    9 ar   
    14    8   35 1    
    15    9   10 1    
    16   10   20 1    
    17   10   11 1    
    18   10   36 1    
    19   11   12 1    
    20   11   13 1    
    21   11   37 1    
    22   13   14 1    
    23   13   38 1    
    24   13   39 1    
    25   14   15 1    
    26   14   19 1    
    27   14   56 1    
    28   15   18 1    
    29   15   16 1    
    30   15   40 1    
    31   16   17 1    
    32   16   41 1    
    33   16   42 1    
    34   17   18 1    
    35   18   43 1    
    36   18   44 1    
    37   19   20 1    
    38   19   45 1    
    39   19   46 1    
    40   20   47 1    
    41   20   48 1    
    42   21   22 ar   
    43   22   23 1    
    44   23   24 1    
    45   23   49 1    
    46   24   32 ar   
    47   24   25 ar   
    48   25   26 1    
    49   25   27 ar   
    50   27   28 1    
    51   27   31 ar   
    52   28   30 1    
    53   28   29 1    
    54   28   50 1    
    55   29   30 1    
    56   29   51 1    
    57   29   52 1    
    58   30   53 1    
    59   30   54 1    
    60   31   32 ar   
    61   32   55 1    
@<TRIPOS>SUBSTRUCTURE
     1 UNK         1 GROUP             0       ****    0 ROOT    
