@<TRIPOS>MOLECULE
/home/yujie/leadopt/data/result/selection/LRRK2/lig_14.sdf:1
55   60    1
SMALL
USER_CHARGES


@<TRIPOS>ATOM
      1 Cl1         8.7440   -4.9450   15.7693 Cl        1 UNK         0.0000 
      2 C2          7.3142   -4.7361   16.7257 C.ar      1 UNK         0.0000 
      3 C3          7.2542   -3.6043   17.5406 C.ar      1 UNK         0.0000 
      4 C4          6.0960   -3.3449   18.3036 C.ar      1 UNK         0.0000 
      5 C5          5.8851   -2.1861   19.0853 C.ar      1 UNK         0.0000 
      6 N6          4.7319   -1.9382   19.7538 N.ar      1 UNK         0.0000 
      7 C7          3.7632   -2.8830   19.6510 C.ar      1 UNK         0.0000 
      8 N8          2.5587   -2.5623   20.2851 N.pl3     1 UNK         0.0000 
      9 C9          1.3553   -3.2247   20.2835 C.ar      1 UNK         0.0000 
     10 C10         0.3501   -3.0929   21.2279 C.ar      1 UNK         0.0000 
     11 Cl11        0.2722   -2.1622   22.6747 Cl        1 UNK         0.0000 
     12 N12        -0.6770   -3.9025   20.8134 N.pl3     1 UNK         0.0000 
     13 C13        -1.9639   -4.1123   21.4646 C.3       1 UNK         0.0000 
     14 C14        -2.9515   -2.9620   21.4912 C.3       1 UNK         0.0000 
     15 C15        -3.2294   -4.1649   20.6265 C.3       1 UNK         0.0000 
     16 N16        -0.3813   -4.5699   19.6920 N.2       1 UNK         0.0000 
     17 C17         0.8262   -4.1619   19.3785 C.ar      1 UNK         0.0000 
     18 N18         3.8700   -4.0576   18.9766 N.ar      1 UNK         0.0000 
     19 C19         5.0214   -4.2764   18.2850 C.ar      1 UNK         0.0000 
     20 C20         5.1232   -5.4290   17.4823 C.ar      1 UNK         0.0000 
     21 C21         6.2424   -5.6514   16.6699 C.ar      1 UNK         0.0000 
     22 C22         6.2938   -6.8522   15.6989 C.3       1 UNK         0.0000 
     23 C23         5.3894   -8.0738   16.0367 C.3       1 UNK         0.0000 
     24 C24         3.9030   -7.9718   15.5987 C.3       1 UNK         0.0000 
     25 N25         3.7471   -7.4667   14.2259 N.3       1 UNK         0.0000 
     26 C26         2.3704   -7.3630   13.7137 C.3       1 UNK         0.0000 
     27 C27         1.4190   -8.5658   13.8163 C.3       1 UNK         0.0000 
     28 O28         0.3701   -7.7138   14.4492 O.3       1 UNK         0.0000 
     29 C29         1.3176   -6.5626   14.4979 C.3       1 UNK         0.0000 
     30 C30         4.4812   -6.2185   13.9829 C.3       1 UNK         0.0000 
     31 C31         5.9831   -6.4101   14.2519 C.3       1 UNK         0.0000 
     32 H32         8.0749   -2.9006   17.5618 H         1 UNK         0.0000 
     33 H33         6.6549   -1.4290   19.1514 H         1 UNK         0.0000 
     34 H34         2.6158   -1.6815   20.7691 H         1 UNK         0.0000 
     35 H35        -1.8919   -4.7510   22.3462 H         1 UNK         0.0000 
     36 H36        -2.6711   -2.0177   21.0217 H         1 UNK         0.0000 
     37 H37        -3.5372   -2.8061   22.3976 H         1 UNK         0.0000 
     38 H38        -4.0142   -4.8624   20.9204 H         1 UNK         0.0000 
     39 H39        -3.1533   -4.0696   19.5425 H         1 UNK         0.0000 
     40 H40         1.3212   -4.5323   18.4931 H         1 UNK         0.0000 
     41 H41         4.2875   -6.1036   17.4965 H         1 UNK         0.0000 
     42 H42         7.3137   -7.2400   15.7039 H         1 UNK         0.0000 
     43 H43         5.7894   -8.9618   15.5431 H         1 UNK         0.0000 
     44 H44         5.4483   -8.3050   17.1004 H         1 UNK         0.0000 
     45 H45         3.4690   -8.9696   15.6502 H         1 UNK         0.0000 
     46 H46         3.3130   -7.3778   16.2912 H         1 UNK         0.0000 
     47 H47         2.4523   -7.0182   12.6851 H         1 UNK         0.0000 
     48 H48         1.0466   -8.9445   12.8633 H         1 UNK         0.0000 
     49 H49         1.6943   -9.3670   14.5018 H         1 UNK         0.0000 
     50 H50         1.5458   -6.3236   15.5372 H         1 UNK         0.0000 
     51 H51         0.8847   -5.7188   13.9598 H         1 UNK         0.0000 
     52 H52         4.3646   -5.9206   12.9389 H         1 UNK         0.0000 
     53 H53         4.0540   -5.4127   14.5826 H         1 UNK         0.0000 
     54 H54         6.5184   -5.4938   14.0049 H         1 UNK         0.0000 
     55 H55         6.3518   -7.1559   13.5450 H         1 UNK         0.0000 
@<TRIPOS>BOND
     1    1    2 1    
     2    2   21 ar   
     3    2    3 ar   
     4    3    4 ar   
     5    3   32 1    
     6    4   19 ar   
     7    4    5 ar   
     8    5    6 ar   
     9    5   33 1    
    10    6    7 ar   
    11    7    8 1    
    12    7   18 ar   
    13    8    9 1    
    14    8   34 1    
    15    9   17 ar   
    16    9   10 ar   
    17   10   11 1    
    18   10   12 ar   
    19   12   13 1    
    20   12   16 ar   
    21   13   15 1    
    22   13   14 1    
    23   13   35 1    
    24   14   15 1    
    25   14   36 1    
    26   14   37 1    
    27   15   38 1    
    28   15   39 1    
    29   16   17 ar   
    30   17   40 1    
    31   18   19 ar   
    32   19   20 ar   
    33   20   21 ar   
    34   20   41 1    
    35   21   22 1    
    36   22   31 1    
    37   22   23 1    
    38   22   42 1    
    39   23   24 1    
    40   23   43 1    
    41   23   44 1    
    42   24   25 1    
    43   24   45 1    
    44   24   46 1    
    45   25   26 1    
    46   25   30 1    
    47   26   29 1    
    48   26   27 1    
    49   26   47 1    
    50   27   28 1    
    51   27   48 1    
    52   27   49 1    
    53   28   29 1    
    54   29   50 1    
    55   29   51 1    
    56   30   31 1    
    57   30   52 1    
    58   30   53 1    
    59   31   54 1    
    60   31   55 1    
@<TRIPOS>SUBSTRUCTURE
     1 UNK         1 GROUP             0       ****    0 ROOT    
