@<TRIPOS>MOLECULE
/home/yujie/leadopt/data/result/selection/LRRK2/lig_23.sdf:1
47   51    1
SMALL
USER_CHARGES


@<TRIPOS>ATOM
      1 Cl1         9.2689   -3.3460   15.6367 Cl        1 UNK         0.0000 
      2 C2          7.8847   -3.6481   16.6351 C.ar      1 UNK         0.0000 
      3 C3          7.6328   -2.7212   17.6436 C.ar      1 UNK         0.0000 
      4 C4          6.4324   -2.7804   18.3723 C.ar      1 UNK         0.0000 
      5 C5          6.0040   -1.7814   19.2671 C.ar      1 UNK         0.0000 
      6 N6          4.7851   -1.7717   19.8513 N.ar      1 UNK         0.0000 
      7 C7          3.9776   -2.8192   19.5601 C.ar      1 UNK         0.0000 
      8 N8          2.6863   -2.6776   20.0802 N.pl3     1 UNK         0.0000 
      9 C9          1.5630   -3.4563   19.9479 C.ar      1 UNK         0.0000 
     10 C10         0.3971   -3.3198   20.6867 C.ar      1 UNK         0.0000 
     11 Cl11       -0.0312   -2.1880   21.9160 Cl        1 UNK         0.0000 
     12 N12        -0.4499   -4.3119   20.2595 N.pl3     1 UNK         0.0000 
     13 C13        -1.8138   -4.5825   20.6985 C.3       1 UNK         0.0000 
     14 C14        -2.2000   -5.9896   21.1098 C.3       1 UNK         0.0000 
     15 F15        -1.2771   -6.9508   21.1223 F         1 UNK         0.0000 
     16 F16        -3.4185   -6.4243   20.7944 F         1 UNK         0.0000 
     17 C17        -2.0905   -4.9177   22.1573 C.3       1 UNK         0.0000 
     18 N18         0.0763   -5.0358   19.2650 N.2       1 UNK         0.0000 
     19 C19         1.2734   -4.5274   19.0844 C.ar      1 UNK         0.0000 
     20 N20         4.3143   -3.8970   18.7942 N.ar      1 UNK         0.0000 
     21 C21         5.5311   -3.8590   18.1688 C.ar      1 UNK         0.0000 
     22 C22         5.8560   -4.8426   17.2052 C.ar      1 UNK         0.0000 
     23 C23         6.9934   -4.7129   16.3845 C.ar      1 UNK         0.0000 
     24 C24         7.1755   -5.5915   15.1196 C.3       1 UNK         0.0000 
     25 C25         8.4398   -6.4994   15.0982 C.3       1 UNK         0.0000 
     26 C26         8.2864   -7.8524   15.8047 C.3       1 UNK         0.0000 
     27 N27         7.0730   -8.5623   15.4030 N.3       1 UNK         0.0000 
     28 C28         5.8397   -7.7779   15.4679 C.3       1 UNK         0.0000 
     29 C29         5.9380   -6.4360   14.7024 C.3       1 UNK         0.0000 
     30 F30         6.0133   -6.7183   13.4006 F         1 UNK         0.0000 
     31 H31         8.3053   -1.8918   17.8050 H         1 UNK         0.0000 
     32 H32         6.6584   -0.9536   19.4845 H         1 UNK         0.0000 
     33 H33         2.6050   -1.8245   20.6099 H         1 UNK         0.0000 
     34 H34        -2.5521   -3.9712   20.1790 H         1 UNK         0.0000 
     35 H35        -3.0024   -4.5391   22.6186 H         1 UNK         0.0000 
     36 H36        -1.2669   -4.9646   22.8696 H         1 UNK         0.0000 
     37 H37         1.9375   -4.9354   18.3369 H         1 UNK         0.0000 
     38 H38         5.1226   -5.6151   17.0469 H         1 UNK         0.0000 
     39 H39         7.2820   -4.8555   14.3217 H         1 UNK         0.0000 
     40 H40         8.7216   -6.7385   14.0737 H         1 UNK         0.0000 
     41 H41         9.3088   -5.9888   15.5085 H         1 UNK         0.0000 
     42 H42         8.3330   -7.7125   16.8778 H         1 UNK         0.0000 
     43 H43         9.1327   -8.4897   15.5465 H         1 UNK         0.0000 
     44 H44         6.9687   -9.4577   15.8786 H         1 UNK         0.0000 
     45 H45         5.5957   -7.6175   16.5180 H         1 UNK         0.0000 
     46 H46         5.0258   -8.3750   15.0539 H         1 UNK         0.0000 
     47 H47         5.0183   -5.8648   14.8327 H         1 UNK         0.0000 
@<TRIPOS>BOND
     1    1    2 1    
     2    2   23 ar   
     3    2    3 ar   
     4    3    4 ar   
     5    3   31 1    
     6    4   21 ar   
     7    4    5 ar   
     8    5    6 ar   
     9    5   32 1    
    10    6    7 ar   
    11    7    8 1    
    12    7   20 ar   
    13    8    9 1    
    14    8   33 1    
    15    9   19 ar   
    16    9   10 ar   
    17   10   11 1    
    18   10   12 ar   
    19   12   13 1    
    20   12   18 ar   
    21   13   17 1    
    22   13   14 1    
    23   13   34 1    
    24   14   15 1    
    25   14   16 1    
    26   14   17 1    
    27   17   35 1    
    28   17   36 1    
    29   18   19 ar   
    30   19   37 1    
    31   20   21 ar   
    32   21   22 ar   
    33   22   23 ar   
    34   22   38 1    
    35   23   24 1    
    36   24   29 1    
    37   24   25 1    
    38   24   39 1    
    39   25   26 1    
    40   25   40 1    
    41   25   41 1    
    42   26   27 1    
    43   26   42 1    
    44   26   43 1    
    45   27   28 1    
    46   27   44 1    
    47   28   29 1    
    48   28   45 1    
    49   28   46 1    
    50   29   30 1    
    51   29   47 1    
@<TRIPOS>SUBSTRUCTURE
     1 UNK         1 GROUP             0       ****    0 ROOT    
