@<TRIPOS>MOLECULE
/home/yujie/leadopt/data/result/selection/LRRK2/lig_15.sdf:1
62   66    1
SMALL
USER_CHARGES


@<TRIPOS>ATOM
      1 Cl1         9.0268   -4.7182   16.6371 Cl        1 UNK         0.0000 
      2 C2          7.4331   -4.5045   17.2808 C.ar      1 UNK         0.0000 
      3 C3          7.2142   -3.3838   18.0845 C.ar      1 UNK         0.0000 
      4 C4          5.9407   -3.1543   18.6472 C.ar      1 UNK         0.0000 
      5 C5          4.9099   -4.1139   18.4478 C.ar      1 UNK         0.0000 
      6 C6          5.1492   -5.2298   17.6244 C.ar      1 UNK         0.0000 
      7 C7          6.3931   -5.4188   17.0088 C.ar      1 UNK         0.0000 
      8 C8          6.6112   -6.6185   16.0578 C.3       1 UNK         0.0000 
      9 C9          5.5658   -7.7669   16.1725 C.3       1 UNK         0.0000 
     10 C10         5.8902   -8.9433   15.2316 C.3       1 UNK         0.0000 
     11 N11         5.9633   -8.4230   13.7778 N.4       1 UNK         0.0000 
     12 C12         6.2300   -9.5725   12.7749 C.3       1 UNK         0.0000 
     13 C13         5.0711  -10.5505   12.5443 C.3       1 UNK         0.0000 
     14 O14         4.8974  -10.0568   11.1451 O.3       1 UNK         0.0000 
     15 C15         6.1117   -9.2017   11.2877 C.3       1 UNK         0.0000 
     16 C16         7.0746   -7.3603   13.6596 C.3       1 UNK         0.0000 
     17 C17         6.7281   -6.1749   14.5836 C.3       1 UNK         0.0000 
     18 N18         3.6738   -3.9484   18.9838 N.ar      1 UNK         0.0000 
     19 C19         3.4206   -2.7964   19.6582 C.ar      1 UNK         0.0000 
     20 N20         2.1285   -2.5623   20.1439 N.pl3     1 UNK         0.0000 
     21 C21         1.0061   -3.3591   20.0753 C.ar      1 UNK         0.0000 
     22 C22        -0.2140   -3.1057   20.6853 C.ar      1 UNK         0.0000 
     23 Cl23       -0.7300   -1.7629   21.6387 Cl        1 UNK         0.0000 
     24 N24        -1.0377   -4.1619   20.3559 N.pl3     1 UNK         0.0000 
     25 C25        -2.4231   -4.4045   20.7633 C.3       1 UNK         0.0000 
     26 C26        -2.5408   -5.1665   22.1123 C.3       1 UNK         0.0000 
     27 C27        -4.0167   -5.2278   22.5469 C.3       1 UNK         0.0000 
     28 C28        -1.9214   -6.5808   22.0980 C.3       1 UNK         0.0000 
     29 O29        -1.8524   -4.4174   23.0866 O.3       1 UNK         0.0000 
     30 N30        -0.4286   -5.0609   19.5792 N.2       1 UNK         0.0000 
     31 C31         0.7736   -4.5743   19.4033 C.ar      1 UNK         0.0000 
     32 N32         4.3247   -1.8069   19.8853 N.ar      1 UNK         0.0000 
     33 C33         5.5704   -2.0083   19.3950 C.ar      1 UNK         0.0000 
     34 H34         8.0117   -2.6757   18.2599 H         1 UNK         0.0000 
     35 H35         4.3235   -5.9093   17.4713 H         1 UNK         0.0000 
     36 H36         7.5755   -7.0331   16.3551 H         1 UNK         0.0000 
     37 H37         5.5321   -8.1518   17.1929 H         1 UNK         0.0000 
     38 H38         4.5676   -7.4078   15.9166 H         1 UNK         0.0000 
     39 H39         6.8707   -9.3622   15.4625 H         1 UNK         0.0000 
     40 H40         5.1329   -9.7278   15.2722 H         1 UNK         0.0000 
     41 H41         7.1820  -10.0171   13.0745 H         1 UNK         0.0000 
     42 H42         5.3393  -11.6085   12.5242 H         1 UNK         0.0000 
     43 H43         4.1550  -10.3552   13.1059 H         1 UNK         0.0000 
     44 H44         5.8524   -8.1628   11.0657 H         1 UNK         0.0000 
     45 H45         6.9085   -9.5781   10.6401 H         1 UNK         0.0000 
     46 H46         8.0223   -7.8344   13.9250 H         1 UNK         0.0000 
     47 H47         7.1253   -7.0598   12.6137 H         1 UNK         0.0000 
     48 H48         5.7967   -5.7106   14.2497 H         1 UNK         0.0000 
     49 H49         7.5142   -5.4320   14.4786 H         1 UNK         0.0000 
     50 H50         2.0384   -1.6434   20.5569 H         1 UNK         0.0000 
     51 H51        -2.9304   -4.9574   19.9708 H         1 UNK         0.0000 
     52 H52        -2.9179   -3.4343   20.8278 H         1 UNK         0.0000 
     53 H53        -4.6259   -5.7391   21.8033 H         1 UNK         0.0000 
     54 H54        -4.4393   -4.2312   22.6843 H         1 UNK         0.0000 
     55 H55        -4.1462   -5.7629   23.4852 H         1 UNK         0.0000 
     56 H56        -2.4312   -7.2255   21.3797 H         1 UNK         0.0000 
     57 H57        -0.8678   -6.5638   21.8260 H         1 UNK         0.0000 
     58 H58        -1.9875   -7.0582   23.0779 H         1 UNK         0.0000 
     59 H59        -1.8114   -4.9065   23.9169 H         1 UNK         0.0000 
     60 H60         1.4806   -5.1174   18.7927 H         1 UNK         0.0000 
     61 H61         6.2976   -1.2300   19.5846 H         1 UNK         0.0000 
     62 H62         5.0804   -7.9876   13.5389 H         1 UNK         0.0000 
@<TRIPOS>BOND
     1    1    2 1    
     2    2    7 ar   
     3    2    3 ar   
     4    3    4 ar   
     5    3   34 1    
     6    4   33 ar   
     7    4    5 ar   
     8    5    6 ar   
     9    5   18 ar   
    10    6    7 ar   
    11    6   35 1    
    12    7    8 1    
    13    8   17 1    
    14    8    9 1    
    15    8   36 1    
    16    9   10 1    
    17    9   37 1    
    18    9   38 1    
    19   10   11 1    
    20   10   39 1    
    21   10   40 1    
    22   11   12 1    
    23   11   16 1    
    24   11   62 1    
    25   12   15 1    
    26   12   13 1    
    27   12   41 1    
    28   13   14 1    
    29   13   42 1    
    30   13   43 1    
    31   14   15 1    
    32   15   44 1    
    33   15   45 1    
    34   16   17 1    
    35   16   46 1    
    36   16   47 1    
    37   17   48 1    
    38   17   49 1    
    39   18   19 ar   
    40   19   20 1    
    41   19   32 ar   
    42   20   21 1    
    43   20   50 1    
    44   21   31 ar   
    45   21   22 ar   
    46   22   23 1    
    47   22   24 ar   
    48   24   25 1    
    49   24   30 ar   
    50   25   26 1    
    51   25   51 1    
    52   25   52 1    
    53   26   27 1    
    54   26   28 1    
    55   26   29 1    
    56   27   53 1    
    57   27   54 1    
    58   27   55 1    
    59   28   56 1    
    60   28   57 1    
    61   28   58 1    
    62   29   59 1    
    63   30   31 ar   
    64   31   60 1    
    65   32   33 ar   
    66   33   61 1    
@<TRIPOS>SUBSTRUCTURE
     1 UNK         1 GROUP             0       ****    0 ROOT    
