@<TRIPOS>MOLECULE
/home/yujie/leadopt/data/result/selection/LRRK2/lig_22.sdf:1
60   65    1
SMALL
USER_CHARGES


@<TRIPOS>ATOM
      1 Cl1         9.0406   -4.0079   15.5002 Cl        1 UNK         0.0000 
      2 C2          7.6443   -4.0761   16.5268 C.ar      1 UNK         0.0000 
      3 C3          7.5186   -3.0838   17.5002 C.ar      1 UNK         0.0000 
      4 C4          6.3449   -3.0071   18.2853 C.ar      1 UNK         0.0000 
      5 C5          5.3557   -4.0237   18.1786 C.ar      1 UNK         0.0000 
      6 C6          5.5399   -5.0577   17.2367 C.ar      1 UNK         0.0000 
      7 C7          6.6369   -5.0452   16.3605 C.ar      1 UNK         0.0000 
      8 C8          6.6216   -6.0103   15.1595 C.3       1 UNK         0.0000 
      9 C9          6.8227   -7.5028   15.5235 C.3       1 UNK         0.0000 
     10 F10         8.0422   -7.6691   16.0405 F         1 UNK         0.0000 
     11 C11         6.7166   -8.4474   14.3069 C.3       1 UNK         0.0000 
     12 N12         5.3888   -8.1935   13.5455 N.4       1 UNK         0.0000 
     13 C13         5.2591   -9.1593   12.3332 C.3       1 UNK         0.0000 
     14 C14         4.0685   -8.9590   11.3738 C.3       1 UNK         0.0000 
     15 O15         3.6535  -10.2602   10.9579 O.3       1 UNK         0.0000 
     16 C16         4.6139  -11.2283   11.3653 C.3       1 UNK         0.0000 
     17 C17         5.2178  -10.6538   12.6457 C.3       1 UNK         0.0000 
     18 O18         4.4302  -10.9524   13.7906 O.3       1 UNK         0.0000 
     19 C19         5.3024   -6.7203   13.0827 C.3       1 UNK         0.0000 
     20 C20         5.3553   -5.7889   14.2952 C.3       1 UNK         0.0000 
     21 N21         4.1830   -3.9591   18.8726 N.ar      1 UNK         0.0000 
     22 C22         3.9649   -2.8436   19.6242 C.ar      1 UNK         0.0000 
     23 N23         2.7228   -2.6270   20.2321 N.pl3     1 UNK         0.0000 
     24 C24         1.5573   -3.3551   20.1856 C.ar      1 UNK         0.0000 
     25 C25         0.4844   -3.2162   21.0551 C.ar      1 UNK         0.0000 
     26 Cl26        0.2568   -2.1637   22.4015 Cl        1 UNK         0.0000 
     27 N27        -0.4540   -4.1382   20.6567 N.pl3     1 UNK         0.0000 
     28 C28        -1.7428   -4.4194   21.2793 C.3       1 UNK         0.0000 
     29 C29        -2.8516   -3.3776   21.2084 C.3       1 UNK         0.0000 
     30 C30        -2.9686   -4.6510   20.4184 C.3       1 UNK         0.0000 
     31 F31        -3.8561   -5.5566   20.8264 F         1 UNK         0.0000 
     32 F32        -2.8706   -4.5630   19.0930 F         1 UNK         0.0000 
     33 N33        -0.0508   -4.8525   19.5985 N.2       1 UNK         0.0000 
     34 C34         1.1340   -4.3683   19.3075 C.ar      1 UNK         0.0000 
     35 N35         4.8537   -1.8366   19.8134 N.ar      1 UNK         0.0000 
     36 C36         6.0321   -1.9408   19.1577 C.ar      1 UNK         0.0000 
     37 H37         7.4623   -5.7460   14.5201 H         1 UNK         0.0000 
     38 H38         6.0928   -7.8078   16.2748 H         1 UNK         0.0000 
     39 H39         6.1737   -8.9372   11.7764 H         1 UNK         0.0000 
     40 H40         6.2238  -11.0454   12.7777 H         1 UNK         0.0000 
     41 H41         8.2754   -2.3192   17.5995 H         1 UNK         0.0000 
     42 H42         4.7565   -5.7959   17.1304 H         1 UNK         0.0000 
     43 H43         7.5277   -8.2874   13.5922 H         1 UNK         0.0000 
     44 H44         6.7225   -9.4896   14.6270 H         1 UNK         0.0000 
     45 H45         3.2381   -8.4768   11.8937 H         1 UNK         0.0000 
     46 H46         4.3711   -8.3597   10.5136 H         1 UNK         0.0000 
     47 H47         5.3636  -11.3401   10.5757 H         1 UNK         0.0000 
     48 H48         4.1482  -12.2088   11.5063 H         1 UNK         0.0000 
     49 H49         4.3400  -11.9071   13.8952 H         1 UNK         0.0000 
     50 H50         6.1360   -6.5585   12.3941 H         1 UNK         0.0000 
     51 H51         4.3669   -6.5800   12.5413 H         1 UNK         0.0000 
     52 H52         4.4435   -5.9317   14.8764 H         1 UNK         0.0000 
     53 H53         5.3516   -4.7668   13.9160 H         1 UNK         0.0000 
     54 H54         2.7219   -1.7770   20.7721 H         1 UNK         0.0000 
     55 H55        -1.6472   -4.9866   22.2042 H         1 UNK         0.0000 
     56 H56        -2.6709   -2.4395   20.6856 H         1 UNK         0.0000 
     57 H57        -3.4969   -3.2343   22.0738 H         1 UNK         0.0000 
     58 H58         1.6974   -4.7621   18.4748 H         1 UNK         0.0000 
     59 H59         6.7367   -1.1317   19.2949 H         1 UNK         0.0000 
     60 H60         4.6161   -8.3836   14.1735 H         1 UNK         0.0000 
@<TRIPOS>BOND
     1    1    2 1    
     2    2    7 ar   
     3    2    3 ar   
     4    3    4 ar   
     5    3   41 1    
     6    4   36 ar   
     7    4    5 ar   
     8    5    6 ar   
     9    5   21 ar   
    10    6    7 ar   
    11    6   42 1    
    12    7    8 1    
    13    8   37 1    
    14    8   20 1    
    15    8    9 1    
    16    9   38 1    
    17    9   10 1    
    18    9   11 1    
    19   11   12 1    
    20   11   43 1    
    21   11   44 1    
    22   12   13 1    
    23   12   19 1    
    24   12   60 1    
    25   13   39 1    
    26   13   17 1    
    27   13   14 1    
    28   14   15 1    
    29   14   45 1    
    30   14   46 1    
    31   15   16 1    
    32   16   17 1    
    33   16   47 1    
    34   16   48 1    
    35   17   40 1    
    36   17   18 1    
    37   18   49 1    
    38   19   20 1    
    39   19   50 1    
    40   19   51 1    
    41   20   52 1    
    42   20   53 1    
    43   21   22 ar   
    44   22   23 1    
    45   22   35 ar   
    46   23   24 1    
    47   23   54 1    
    48   24   34 ar   
    49   24   25 ar   
    50   25   26 1    
    51   25   27 ar   
    52   27   28 1    
    53   27   33 ar   
    54   28   30 1    
    55   28   29 1    
    56   28   55 1    
    57   29   30 1    
    58   29   56 1    
    59   29   57 1    
    60   30   31 1    
    61   30   32 1    
    62   33   34 ar   
    63   34   58 1    
    64   35   36 ar   
    65   36   59 1    
@<TRIPOS>SUBSTRUCTURE
     1 UNK         1 GROUP             0       ****    0 ROOT    
