@<TRIPOS>MOLECULE
/home/yujie/leadopt/data/result/selection/LRRK2/lig_13.sdf:1
59   64    1
SMALL
USER_CHARGES


@<TRIPOS>ATOM
      1 Cl1         9.0714   -4.1952   15.7733 Cl        1 UNK         0.0000 
      2 C2          7.5740   -4.2527   16.6437 C.ar      1 UNK         0.0000 
      3 C3          7.3682   -3.2746   17.6173 C.ar      1 UNK         0.0000 
      4 C4          6.1374   -3.2103   18.3061 C.ar      1 UNK         0.0000 
      5 C5          5.1474   -4.2059   18.0753 C.ar      1 UNK         0.0000 
      6 C6          5.3998   -5.2154   17.1248 C.ar      1 UNK         0.0000 
      7 C7          6.5767   -5.2098   16.3658 C.ar      1 UNK         0.0000 
      8 C8          6.6803   -6.1900   15.1867 C.3       1 UNK         0.0000 
      9 C9          6.7174   -7.6742   15.6133 C.3       1 UNK         0.0000 
     10 C10         6.8530   -8.6050   14.3913 C.3       1 UNK         0.0000 
     11 N11         5.6766   -8.3460   13.4188 N.4       1 UNK         0.0000 
     12 C12         5.8020   -9.2581   12.1734 C.3       1 UNK         0.0000 
     13 C13         5.5297  -10.7543   12.3717 C.3       1 UNK         0.0000 
     14 O14         4.5519  -10.7423   11.2456 O.3       1 UNK         0.0000 
     15 C15         4.6232   -9.2555   11.1920 C.3       1 UNK         0.0000 
     16 C16         5.6434   -6.8749   12.9473 C.3       1 UNK         0.0000 
     17 C17         5.5583   -5.9312   14.1531 C.3       1 UNK         0.0000 
     18 N18         3.9304   -4.1624   18.6859 N.ar      1 UNK         0.0000 
     19 C19         3.6711   -3.0924   19.4864 C.ar      1 UNK         0.0000 
     20 N20         2.4006   -2.9342   20.0578 N.pl3     1 UNK         0.0000 
     21 C21         1.2643   -3.7051   19.9425 C.ar      1 UNK         0.0000 
     22 C22         0.0953   -3.5553   20.6850 C.ar      1 UNK         0.0000 
     23 C23        -0.2849   -2.5632   21.7688 C.3       1 UNK         0.0000 
     24 N24        -0.7540   -4.5502   20.2469 N.pl3     1 UNK         0.0000 
     25 C25        -2.1265   -4.8087   20.7004 C.3       1 UNK         0.0000 
     26 C26        -3.2237   -4.9957   19.6680 C.3       1 UNK         0.0000 
     27 C27        -2.7601   -6.1740   20.4895 C.3       1 UNK         0.0000 
     28 N28        -0.2185   -5.2836   19.2621 N.2       1 UNK         0.0000 
     29 C29         0.9749   -4.7781   19.0835 C.ar      1 UNK         0.0000 
     30 N30         4.5498   -2.1022   19.7862 N.ar      1 UNK         0.0000 
     31 C31         5.7692   -2.1806   19.2002 C.ar      1 UNK         0.0000 
     32 H32         8.1228   -2.5239   17.8049 H         1 UNK         0.0000 
     33 H33         4.6218   -5.9401   16.9341 H         1 UNK         0.0000 
     34 H34         7.6251   -5.9891   14.6855 H         1 UNK         0.0000 
     35 H35         7.5738   -7.8499   16.2678 H         1 UNK         0.0000 
     36 H36         5.8188   -7.9432   16.1706 H         1 UNK         0.0000 
     37 H37         7.7797   -8.4277   13.8392 H         1 UNK         0.0000 
     38 H38         6.8040   -9.6566   14.6811 H         1 UNK         0.0000 
     39 H39         6.7694   -9.0087   11.7294 H         1 UNK         0.0000 
     40 H40         6.3578  -11.4188   12.1218 H         1 UNK         0.0000 
     41 H41         5.0194  -11.0414   13.2936 H         1 UNK         0.0000 
     42 H42         3.6846   -8.8359   11.5550 H         1 UNK         0.0000 
     43 H43         4.8624   -8.9359   10.1771 H         1 UNK         0.0000 
     44 H44         6.5409   -6.7125   12.3483 H         1 UNK         0.0000 
     45 H45         4.7771   -6.7530   12.2935 H         1 UNK         0.0000 
     46 H46         4.5704   -6.0354   14.6023 H         1 UNK         0.0000 
     47 H47         5.6409   -4.9120   13.7704 H         1 UNK         0.0000 
     48 H48         2.3616   -2.1086   20.6338 H         1 UNK         0.0000 
     49 H49         0.5018   -1.8295   21.9448 H         1 UNK         0.0000 
     50 H50        -1.1811   -2.0002   21.5064 H         1 UNK         0.0000 
     51 H51        -0.4775   -3.0569   22.7212 H         1 UNK         0.0000 
     52 H52        -2.3808   -4.2855   21.6234 H         1 UNK         0.0000 
     53 H53        -2.9712   -4.9579   18.6061 H         1 UNK         0.0000 
     54 H54        -4.2015   -4.5574   19.8690 H         1 UNK         0.0000 
     55 H55        -3.4142   -6.5655   21.2701 H         1 UNK         0.0000 
     56 H56        -2.1835   -6.9653   20.0088 H         1 UNK         0.0000 
     57 H57         1.6318   -5.1971   18.3364 H         1 UNK         0.0000 
     58 H58         6.4658   -1.3831   19.4243 H         1 UNK         0.0000 
     59 H59         4.8100   -8.5447   13.9013 H         1 UNK         0.0000 
@<TRIPOS>BOND
     1    1    2 1    
     2    2    7 ar   
     3    2    3 ar   
     4    3    4 ar   
     5    3   32 1    
     6    4   31 ar   
     7    4    5 ar   
     8    5    6 ar   
     9    5   18 ar   
    10    6    7 ar   
    11    6   33 1    
    12    7    8 1    
    13    8   17 1    
    14    8    9 1    
    15    8   34 1    
    16    9   10 1    
    17    9   35 1    
    18    9   36 1    
    19   10   11 1    
    20   10   37 1    
    21   10   38 1    
    22   11   12 1    
    23   11   16 1    
    24   11   59 1    
    25   12   15 1    
    26   12   13 1    
    27   12   39 1    
    28   13   14 1    
    29   13   40 1    
    30   13   41 1    
    31   14   15 1    
    32   15   42 1    
    33   15   43 1    
    34   16   17 1    
    35   16   44 1    
    36   16   45 1    
    37   17   46 1    
    38   17   47 1    
    39   18   19 ar   
    40   19   20 1    
    41   19   30 ar   
    42   20   21 1    
    43   20   48 1    
    44   21   29 ar   
    45   21   22 ar   
    46   22   23 1    
    47   22   24 ar   
    48   23   49 1    
    49   23   50 1    
    50   23   51 1    
    51   24   25 1    
    52   24   28 ar   
    53   25   27 1    
    54   25   26 1    
    55   25   52 1    
    56   26   27 1    
    57   26   53 1    
    58   26   54 1    
    59   27   55 1    
    60   27   56 1    
    61   28   29 ar   
    62   29   57 1    
    63   30   31 ar   
    64   31   58 1    
@<TRIPOS>SUBSTRUCTURE
     1 UNK         1 GROUP             0       ****    0 ROOT    
