/home/yujie/leadopt/data/result/selection/LRRK2/lig_17.sdf:1
                    3D
 Schrodinger Suite 2020-3.
 56 61  0  0  1  0            999 V2000
    8.7019   -4.6763   16.2689 Cl  0  0  0  0  0  0
    7.1918   -4.5285   17.1057 C   0  0  0  0  0  0
    7.0596   -3.4594   17.9960 C   0  0  0  0  0  0
    5.8326   -3.2402   18.6599 C   0  0  0  0  0  0
    5.5345   -2.1224   19.4771 C   0  0  0  0  0  0
    4.3117   -1.8980   20.0149 N   0  0  0  0  0  0
    4.7670   -4.1626   18.4718 C   0  0  0  0  0  0
    4.9341   -5.2495   17.5915 C   0  0  0  0  0  0
    6.1239   -5.4221   16.8732 C   0  0  0  0  0  0
    6.2369   -6.5278   15.7991 C   0  0  1  0  0  0
    5.3614   -7.8024   15.9956 C   0  0  1  0  0  0
    4.0591   -7.5271   15.8915 F   0  0  0  0  0  0
    5.6560   -8.8651   14.9124 C   0  0  0  0  0  0
    5.4038   -8.2503   13.5079 N   0  3  2  0  0  0
    5.6098   -9.2278   12.3170 C   0  0  0  0  0  0
    6.9432   -9.9812   12.2041 C   0  0  0  0  0  0
    6.2338  -11.2914   12.2849 O   0  0  0  0  0  0
    4.9145  -10.5962   12.3522 C   0  0  0  0  0  0
    6.2961   -7.0082   13.2851 C   0  0  0  0  0  0
    6.0224   -5.9550   14.3783 C   0  0  0  0  0  0
    3.5573   -3.9822   19.0628 N   0  0  0  0  0  0
    3.3664   -2.8418   19.7743 C   0  0  0  0  0  0
    2.0925   -2.5656   20.2856 N   0  0  0  0  0  0
    0.9526   -3.3369   20.2466 C   0  0  0  0  0  0
   -0.1403   -3.2251   21.0913 C   0  0  0  0  0  0
   -0.4438   -2.1619   22.4102 Cl  0  0  0  0  0  0
   -1.0349   -4.1883   20.6957 N   0  0  0  0  0  0
   -2.3559   -4.4663   21.2421 C   0  0  0  0  0  0
   -2.7358   -5.8982   21.5733 C   0  0  0  0  0  0
   -2.4638   -4.9164   22.6843 C   0  0  0  0  0  0
   -0.5929   -4.9036   19.6572 N   0  0  0  0  0  0
    0.5885   -4.3975   19.3952 C   0  0  0  0  0  0
    7.8751   -2.7641   18.1403 H   0  0  0  0  0  0
    6.2851   -1.3621   19.6455 H   0  0  0  0  0  0
    4.0841   -5.8974   17.4559 H   0  0  0  0  0  0
    7.2696   -6.8726   15.8722 H   0  0  0  0  0  0
    5.5330   -8.2284   16.9857 H   0  0  0  0  0  0
    6.6915   -9.2051   14.9545 H   0  0  0  0  0  0
    5.0041   -9.7301   15.0318 H   0  0  0  0  0  0
    5.3552   -8.6267   11.4408 H   0  0  0  0  0  0
    7.4481   -9.8952   11.2395 H   0  0  0  0  0  0
    7.6373   -9.8905   13.0389 H   0  0  0  0  0  0
    4.4020  -10.8760   13.2725 H   0  0  0  0  0  0
    4.3331  -10.8496   11.4641 H   0  0  0  0  0  0
    7.3295   -7.3638   13.3051 H   0  0  0  0  0  0
    6.0832   -6.6149   12.2870 H   0  0  0  0  0  0
    5.0066   -5.5697   14.2684 H   0  0  0  0  0  0
    6.7038   -5.1221   14.2002 H   0  0  0  0  0  0
    2.0505   -1.6662   20.7417 H   0  0  0  0  0  0
   -3.1235   -3.7953   20.8545 H   0  0  0  0  0  0
   -2.0153   -6.6948   21.3813 H   0  0  0  0  0  0
   -3.7604   -6.2159   21.3784 H   0  0  0  0  0  0
   -3.2939   -4.5359   23.2796 H   0  0  0  0  0  0
   -1.5505   -5.0151   23.2736 H   0  0  0  0  0  0
    1.1817   -4.7940   18.5852 H   0  0  0  0  0  0
    4.4427   -7.9324   13.4932 H   0  0  0  0  0  0
  1  2  1  0  0  0
  2  9  1  0  0  0
  2  3  2  0  0  0
  3  4  1  0  0  0
  3 33  1  0  0  0
  4  5  1  0  0  0
  4  7  2  0  0  0
  5  6  2  0  0  0
  5 34  1  0  0  0
  6 22  1  0  0  0
  7  8  1  0  0  0
  7 21  1  0  0  0
  8  9  2  0  0  0
  8 35  1  0  0  0
  9 10  1  0  0  0
 10 20  1  0  0  0
 10 11  1  0  0  0
 10 36  1  0  0  0
 11 12  1  0  0  0
 11 13  1  0  0  0
 11 37  1  0  0  0
 13 14  1  0  0  0
 13 38  1  0  0  0
 13 39  1  0  0  0
 14 15  1  0  0  0
 14 19  1  0  0  0
 14 56  1  0  0  0
 15 18  1  0  0  0
 15 16  1  0  0  0
 15 40  1  0  0  0
 16 17  1  0  0  0
 16 41  1  0  0  0
 16 42  1  0  0  0
 17 18  1  0  0  0
 18 43  1  0  0  0
 18 44  1  0  0  0
 19 20  1  0  0  0
 19 45  1  0  0  0
 19 46  1  0  0  0
 20 47  1  0  0  0
 20 48  1  0  0  0
 21 22  2  0  0  0
 22 23  1  0  0  0
 23 24  1  0  0  0
 23 49  1  0  0  0
 24 32  1  0  0  0
 24 25  2  0  0  0
 25 26  1  0  0  0
 25 27  1  0  0  0
 27 28  1  0  0  0
 27 31  1  0  0  0
 28 30  1  0  0  0
 28 29  1  0  0  0
 28 50  1  0  0  0
 29 30  1  0  0  0
 29 51  1  0  0  0
 29 52  1  0  0  0
 30 53  1  0  0  0
 30 54  1  0  0  0
 31 32  2  0  0  0
 32 55  1  0  0  0
M  CHG  1  14   1
M  END
> <s_m_source_file>
/home/yujie/leadopt/data/result/selection/LRRK2/lig_17.sdf

> <i_m_source_file_index>
1

> <i_lp_mmshare_version>
51139

> <i_f3d_flags>
0

> <s_epik_input>
W0NIMl0xT1tDSDJdW0NIXTFOKFtDSDJdW0NIMl0yKVtDSDJdW0NASF0oRilbQ0BASF0yYyhjKENsKVtjSF0zKVtjSF1jKGMzNCluYyhuW2NIXTQpW05IXWM1YyhDbCluKG5bY0hdNSlbQ0hdNltDSDJdW0NIMl02

> <s_epik_cmdline>
J2VwaWtfcHl0aG9uJywgJy1waHQnLCAnMi4wJywgJy1waCcsICc3LjAnLCAnLXRuJywgJzgnLCAnLW1hJywgJzIwMCcsICctaW1hZScsICc8aW5maWxlLm1hZT4nLCAnLW9tYWUnLCAnPG91dGZpbGUubWFlPic=

> <r_epik_Ionization_Penalty>
  1.4414

> <r_epik_Ionization_Penalty_Charging>
  1.4414

> <r_epik_Ionization_Penalty_Neutral>
  0.0000

> <r_epik_State_Penalty>
  1.5268

> <r_epik_Charging_Adjusted_Penalty>
2.96822

> <i_epik_Tot_Q>
1

> <i_epik_Tot_abs_Q>
1

> <s_lp_Force_Field>
OPLS3e

> <r_lp_Energy>
38.2178

> <b_lp_Chiralities_Consistent>
1

> <s_lp_Variant>
/home/yujie/leadopt/data/result/selection/LRRK2/lig_17.sdf:1-2

> <s_i_glide_gridfile>
glide-grid_LRRK2

> <i_i_glide_lignum>
2

> <i_i_glide_rotatable_bonds>
5

> <r_i_docking_score>
-6.90032555129317

> <r_i_glide_ligand_efficiency>
-0.215635173477912

> <r_i_glide_ligand_efficiency_sa>
-0.684599001649484

> <r_i_glide_ligand_efficiency_ln>
-1.54517098670504

> <r_i_glide_gscore>
-8.42715555129317

> <r_i_glide_lipo>
-3.70936794281772

> <r_i_glide_hbond>
-0.212486240066995

> <r_i_glide_metal>
-0

> <r_i_glide_rewards>
-1.52420911420981

> <r_i_glide_evdw>
-47.6075897216797

> <r_i_glide_ecoul>
-6.01533794403076

> <r_i_glide_erotb>
0.309931338137805

> <r_i_glide_esite>
-0.00834341464784763

> <r_i_glide_emodel>
-79.8110755937961

> <r_i_glide_energy>
-53.6229276657104

> <r_i_glide_einternal>
9.3465633392334

> <i_i_glide_confnum>
152

> <i_i_glide_posenum>
231

> <r_i_glide_eff_state_penalty>
1.52683

$$$$
