@<TRIPOS>MOLECULE
/home/yujie/leadopt/data/result/selection/LRRK2/lig_8.sdf:1
49   53    1
SMALL
USER_CHARGES


@<TRIPOS>ATOM
      1 C1         -0.4343   -2.5622   21.7050 C.3       1 UNK         0.0000 
      2 C2          0.0457   -3.5013   20.6180 C.ar      1 UNK         0.0000 
      3 N3         -0.7309   -4.5272   20.1136 N.pl3     1 UNK         0.0000 
      4 C4         -2.1020   -4.9131   20.5190 C.3       1 UNK         0.0000 
      5 C5         -2.9987   -5.1331   19.2702 C.3       1 UNK         0.0000 
      6 C6         -4.3358   -5.7919   19.6514 C.3       1 UNK         0.0000 
      7 O7         -4.0902   -6.9944   20.3812 O.3       1 UNK         0.0000 
      8 C8         -3.4209   -6.7894   21.6237 C.3       1 UNK         0.0000 
      9 C9         -2.0208   -6.2039   21.3713 C.3       1 UNK         0.0000 
     10 N10        -0.0820   -5.2398   19.1816 N.2       1 UNK         0.0000 
     11 C11         1.0788   -4.6532   19.0585 C.ar      1 UNK         0.0000 
     12 C12         1.2508   -3.5627   19.9211 C.ar      1 UNK         0.0000 
     13 N13         2.3233   -2.7137   20.0729 N.pl3     1 UNK         0.0000 
     14 C14         3.6384   -2.8255   19.6005 C.ar      1 UNK         0.0000 
     15 N15         4.0303   -3.9258   18.9031 N.ar      1 UNK         0.0000 
     16 C16         5.3000   -3.9321   18.4019 C.ar      1 UNK         0.0000 
     17 C17         5.7158   -5.0058   17.5862 C.ar      1 UNK         0.0000 
     18 C18         6.9989   -5.0242   17.0192 C.ar      1 UNK         0.0000 
     19 C19         7.4183   -6.1404   16.1086 C.ar      1 UNK         0.0000 
     20 C20         8.6646   -6.3226   15.4781 C.ar      1 UNK         0.0000 
     21 C21         8.5464   -7.4696   14.7121 C.ar      1 UNK         0.0000 
     22 N22         7.2772   -7.9115   14.9502 N.pl3     1 UNK         0.0000 
     23 N23         6.5959   -7.1212   15.7842 N.2       1 UNK         0.0000 
     24 C24         7.8809   -3.9756   17.3006 C.ar      1 UNK         0.0000 
     25 C25         7.5092   -2.9020   18.1055 C.ar      1 UNK         0.0000 
     26 C26         6.2041   -2.8616   18.6487 C.ar      1 UNK         0.0000 
     27 C27         5.6932   -1.8001   19.4208 C.ar      1 UNK         0.0000 
     28 N28         4.4230   -1.7619   19.8862 N.ar      1 UNK         0.0000 
     29 H29         0.3066   -1.7981   21.9387 H         1 UNK         0.0000 
     30 H30        -1.3452   -2.0316   21.4149 H         1 UNK         0.0000 
     31 H31        -0.6516   -3.0936   22.6344 H         1 UNK         0.0000 
     32 H32        -2.4923   -4.0850   21.1094 H         1 UNK         0.0000 
     33 H33        -2.5005   -5.6966   18.4827 H         1 UNK         0.0000 
     34 H34        -3.2334   -4.1622   18.8331 H         1 UNK         0.0000 
     35 H35        -4.9035   -6.0370   18.7513 H         1 UNK         0.0000 
     36 H36        -4.9595   -5.1135   20.2361 H         1 UNK         0.0000 
     37 H37        -3.3399   -7.7448   22.1412 H         1 UNK         0.0000 
     38 H38        -4.0097   -6.1358   22.2698 H         1 UNK         0.0000 
     39 H39        -1.5939   -5.9559   22.3467 H         1 UNK         0.0000 
     40 H40        -1.3457   -6.9433   20.9315 H         1 UNK         0.0000 
     41 H41         1.7997   -5.0229   18.3476 H         1 UNK         0.0000 
     42 H42         2.1946   -1.8567   20.5888 H         1 UNK         0.0000 
     43 H43         5.0127   -5.8002   17.3896 H         1 UNK         0.0000 
     44 H44         9.5306   -5.6828   15.5447 H         1 UNK         0.0000 
     45 H45         9.2047   -7.9824   14.0262 H         1 UNK         0.0000 
     46 H46         6.8605   -8.7328   14.5338 H         1 UNK         0.0000 
     47 H47         8.8756   -3.9723   16.8826 H         1 UNK         0.0000 
     48 H48         8.1987   -2.0930   18.2997 H         1 UNK         0.0000 
     49 H49         6.3321   -0.9615   19.6526 H         1 UNK         0.0000 
@<TRIPOS>BOND
     1    1    2 1    
     2    1   29 1    
     3    1   30 1    
     4    1   31 1    
     5    2    3 ar   
     6    2   12 ar   
     7    3    4 1    
     8    3   10 ar   
     9    4    9 1    
    10    4    5 1    
    11    4   32 1    
    12    5    6 1    
    13    5   33 1    
    14    5   34 1    
    15    6    7 1    
    16    6   35 1    
    17    6   36 1    
    18    7    8 1    
    19    8    9 1    
    20    8   37 1    
    21    8   38 1    
    22    9   39 1    
    23    9   40 1    
    24   10   11 ar   
    25   11   12 ar   
    26   11   41 1    
    27   12   13 1    
    28   13   14 1    
    29   13   42 1    
    30   14   28 ar   
    31   14   15 ar   
    32   15   16 ar   
    33   16   26 ar   
    34   16   17 ar   
    35   17   18 ar   
    36   17   43 1    
    37   18   24 ar   
    38   18   19 1    
    39   19   23 ar   
    40   19   20 ar   
    41   20   21 ar   
    42   20   44 1    
    43   21   22 ar   
    44   21   45 1    
    45   22   23 ar   
    46   22   46 1    
    47   24   25 ar   
    48   24   47 1    
    49   25   26 ar   
    50   25   48 1    
    51   26   27 ar   
    52   27   28 ar   
    53   27   49 1    
@<TRIPOS>SUBSTRUCTURE
     1 UNK         1 GROUP             0       ****    0 ROOT    
