/home/yujie/leadopt/data/result/selection/LRRK2/lig_21.sdf:1
                    3D
 Schrodinger Suite 2020-3.
 59 64  0  0  1  0            999 V2000
    8.6464   -4.7870   16.1690 Cl  0  0  0  0  0  0
    7.1488   -4.6137   17.0242 C   0  0  0  0  0  0
    7.0320   -3.5207   17.8843 C   0  0  0  0  0  0
    5.8150   -3.2803   18.5561 C   0  0  0  0  0  0
    5.5348   -2.1358   19.3377 C   0  0  0  0  0  0
    4.3278   -1.8980   19.9035 N   0  0  0  0  0  0
    4.7437   -4.2062   18.4182 C   0  0  0  0  0  0
    4.8960   -5.3179   17.5668 C   0  0  0  0  0  0
    6.0742   -5.5083   16.8330 C   0  0  0  0  0  0
    6.1652   -6.6271   15.7746 C   0  0  1  0  0  0
    5.2835   -7.8897   15.9956 C   0  0  1  0  0  0
    3.9813   -7.6087   15.9083 F   0  0  0  0  0  0
    5.5587   -8.9617   14.9190 C   0  0  0  0  0  0
    5.3087   -8.3708   13.5053 N   0  3  2  0  0  0
    5.5668   -9.4273   12.3933 C   0  0  1  0  0  0
    4.7718  -10.7224   12.4761 C   0  0  1  0  0  0
    3.4923  -10.4405   12.7396 F   0  0  0  0  0  0
    4.8605  -11.2722   11.0588 C   0  0  0  0  0  0
    4.7642  -10.1079   10.2450 O   0  0  0  0  0  0
    5.3156   -8.9819   10.9361 C   0  0  0  0  0  0
    6.1826   -7.1152   13.2657 C   0  0  0  0  0  0
    5.9243   -6.0613   14.3588 C   0  0  0  0  0  0
    3.5452   -4.0091   19.0305 N   0  0  0  0  0  0
    3.3790   -2.8509   19.7198 C   0  0  0  0  0  0
    2.1316   -2.5624   20.2820 N   0  0  0  0  0  0
    0.9859   -3.3203   20.3251 C   0  0  0  0  0  0
   -0.0316   -3.2002   21.2577 C   0  0  0  0  0  0
   -0.1960   -2.1616   22.6215 Cl  0  0  0  0  0  0
   -0.9803   -4.1304   20.9161 N   0  0  0  0  0  0
   -2.2357   -4.4135   21.5992 C   0  0  1  0  0  0
   -3.2952   -3.3249   21.6909 C   0  0  0  0  0  0
   -3.5210   -4.5153   20.8018 C   0  0  0  0  0  0
   -4.4265   -5.4131   21.1861 F   0  0  0  0  0  0
   -3.5008   -4.3045   19.4862 F   0  0  0  0  0  0
   -0.6196   -4.8626   19.8557 N   0  0  0  0  0  0
    0.5465   -4.3733   19.5025 C   0  0  0  0  0  0
    7.8503   -2.8229   17.9967 H   0  0  0  0  0  0
    6.2922   -1.3762   19.4763 H   0  0  0  0  0  0
    4.0441   -5.9694   17.4631 H   0  0  0  0  0  0
    7.1968   -6.9777   15.8320 H   0  0  0  0  0  0
    5.4697   -8.3064   16.9868 H   0  0  0  0  0  0
    6.5894   -9.3210   14.9501 H   0  0  0  0  0  0
    4.8884   -9.8139   15.0431 H   0  0  0  0  0  0
    6.6309   -9.6514   12.5072 H   0  0  0  0  0  0
    5.1314  -11.4213   13.2327 H   0  0  0  0  0  0
    5.8130  -11.7683   10.8674 H   0  0  0  0  0  0
    4.0736  -11.9902   10.8256 H   0  0  0  0  0  0
    4.5923   -8.1683   10.9070 H   0  0  0  0  0  0
    6.2556   -8.6698   10.4751 H   0  0  0  0  0  0
    7.2237   -7.4433   13.2465 H   0  0  0  0  0  0
    5.9296   -6.7151   12.2850 H   0  0  0  0  0  0
    4.9042   -5.6841   14.2643 H   0  0  0  0  0  0
    6.5949   -5.2212   14.1773 H   0  0  0  0  0  0
    2.1179   -1.6537   20.7201 H   0  0  0  0  0  0
   -2.1057   -5.0596   22.4683 H   0  0  0  0  0  0
   -3.1056   -2.3538   21.2304 H   0  0  0  0  0  0
   -3.8800   -3.2333   22.6060 H   0  0  0  0  0  0
    1.0778   -4.7765   18.6531 H   0  0  0  0  0  0
    4.3371   -8.0868   13.4638 H   0  0  0  0  0  0
  1  2  1  0  0  0
  2  9  1  0  0  0
  2  3  2  0  0  0
  3  4  1  0  0  0
  3 37  1  0  0  0
  4  5  1  0  0  0
  4  7  2  0  0  0
  5  6  2  0  0  0
  5 38  1  0  0  0
  6 24  1  0  0  0
  7  8  1  0  0  0
  7 23  1  0  0  0
  8  9  2  0  0  0
  8 39  1  0  0  0
  9 10  1  0  0  0
 10 22  1  0  0  0
 10 11  1  0  0  0
 10 40  1  0  0  0
 11 12  1  0  0  0
 11 13  1  0  0  0
 11 41  1  0  0  0
 13 14  1  0  0  0
 13 42  1  0  0  0
 13 43  1  0  0  0
 14 15  1  0  0  0
 14 21  1  0  0  0
 14 59  1  0  0  0
 15 20  1  0  0  0
 15 16  1  0  0  0
 15 44  1  0  0  0
 16 17  1  0  0  0
 16 18  1  0  0  0
 16 45  1  0  0  0
 18 19  1  0  0  0
 18 46  1  0  0  0
 18 47  1  0  0  0
 19 20  1  0  0  0
 20 48  1  0  0  0
 20 49  1  0  0  0
 21 22  1  0  0  0
 21 50  1  0  0  0
 21 51  1  0  0  0
 22 52  1  0  0  0
 22 53  1  0  0  0
 23 24  2  0  0  0
 24 25  1  0  0  0
 25 26  1  0  0  0
 25 54  1  0  0  0
 26 36  1  0  0  0
 26 27  2  0  0  0
 27 28  1  0  0  0
 27 29  1  0  0  0
 29 30  1  0  0  0
 29 35  1  0  0  0
 30 32  1  0  0  0
 30 31  1  0  0  0
 30 55  1  0  0  0
 31 32  1  0  0  0
 31 56  1  0  0  0
 31 57  1  0  0  0
 32 33  1  0  0  0
 32 34  1  0  0  0
 35 36  2  0  0  0
 36 58  1  0  0  0
M  CHG  1  14   1
M  END
> <s_m_source_file>
/home/yujie/leadopt/data/result/selection/LRRK2/lig_21.sdf

> <i_m_source_file_index>
1

> <i_lp_mmshare_version>
51139

> <i_f3d_flags>
0

> <s_epik_input>
W0NIMl0xT1tDSDJdW0NASF0oRilbQ0BASF0xTihbQ0gyXVtDSDJdMilbQ0gyXVtDQEhdKEYpW0NAQEhdMmMoYyhDbClbY0hdMylbY0hdYyhjMzQpbmMobltjSF00KVtOSF1jNWMoQ2wpbihbQ0BASF0oW0NIMl02KUM2KEYpRiluW2NIXTU=

> <s_epik_cmdline>
J2VwaWtfcHl0aG9uJywgJy1waHQnLCAnMi4wJywgJy1waCcsICc3LjAnLCAnLXRuJywgJzgnLCAnLW1hJywgJzIwMCcsICctaW1hZScsICc8aW5maWxlLm1hZT4nLCAnLW9tYWUnLCAnPG91dGZpbGUubWFlPic=

> <r_epik_Ionization_Penalty>
  2.4285

> <r_epik_Ionization_Penalty_Charging>
  2.4284

> <r_epik_Ionization_Penalty_Neutral>
  0.0000

> <r_epik_State_Penalty>
  2.5883

> <r_epik_Charging_Adjusted_Penalty>
5.01673

> <i_epik_Tot_Q>
1

> <i_epik_Tot_abs_Q>
1

> <s_lp_Force_Field>
OPLS3e

> <r_lp_Energy>
35.9406

> <b_lp_Chiralities_Consistent>
1

> <s_lp_Variant>
/home/yujie/leadopt/data/result/selection/LRRK2/lig_21.sdf:1-2

> <s_i_glide_gridfile>
glide-grid_LRRK2

> <i_i_glide_lignum>
2

> <i_i_glide_rotatable_bonds>
5

> <r_i_docking_score>
-5.79087441498937

> <r_i_glide_ligand_efficiency>
-0.160857622638594

> <r_i_glide_ligand_efficiency_sa>
-0.531140166748331

> <r_i_glide_ligand_efficiency_ln>
-1.26341234600417

> <r_i_glide_gscore>
-8.37917441498937

> <r_i_glide_lipo>
-3.65797899251728

> <r_i_glide_hbond>
-0.173794283591378

> <r_i_glide_metal>
-0

> <r_i_glide_rewards>
-1.34691885647604

> <r_i_glide_evdw>
-49.9018669128418

> <r_i_glide_ecoul>
-6.25471496582031

> <r_i_glide_erotb>
0.242811921406913

> <r_i_glide_esite>
-0.00999361329645133

> <r_i_glide_emodel>
-84.9796592460126

> <r_i_glide_energy>
-56.1565818786621

> <r_i_glide_einternal>
4.60547399520874

> <i_i_glide_confnum>
103

> <i_i_glide_posenum>
109

> <r_i_glide_eff_state_penalty>
2.5883

$$$$
