/home/yujie/leadopt/data/result/selection/LRRK2/lig_15.sdf:1
                    3D
 Schrodinger Suite 2020-3.
 62 66  0  0  1  0            999 V2000
    9.0268   -4.7182   16.6371 Cl  0  0  0  0  0  0
    7.4331   -4.5045   17.2808 C   0  0  0  0  0  0
    7.2142   -3.3838   18.0845 C   0  0  0  0  0  0
    5.9407   -3.1543   18.6472 C   0  0  0  0  0  0
    4.9099   -4.1139   18.4478 C   0  0  0  0  0  0
    5.1492   -5.2298   17.6244 C   0  0  0  0  0  0
    6.3931   -5.4188   17.0088 C   0  0  0  0  0  0
    6.6112   -6.6185   16.0578 C   0  0  1  0  0  0
    5.5658   -7.7669   16.1725 C   0  0  0  0  0  0
    5.8902   -8.9433   15.2316 C   0  0  0  0  0  0
    5.9633   -8.4230   13.7778 N   0  3  2  0  0  0
    6.2300   -9.5725   12.7749 C   0  0  0  0  0  0
    5.0711  -10.5505   12.5443 C   0  0  0  0  0  0
    4.8974  -10.0568   11.1451 O   0  0  0  0  0  0
    6.1117   -9.2017   11.2877 C   0  0  0  0  0  0
    7.0746   -7.3603   13.6596 C   0  0  0  0  0  0
    6.7281   -6.1749   14.5836 C   0  0  0  0  0  0
    3.6738   -3.9484   18.9838 N   0  0  0  0  0  0
    3.4206   -2.7964   19.6582 C   0  0  0  0  0  0
    2.1285   -2.5623   20.1439 N   0  0  0  0  0  0
    1.0061   -3.3591   20.0753 C   0  0  0  0  0  0
   -0.2140   -3.1057   20.6853 C   0  0  0  0  0  0
   -0.7300   -1.7629   21.6387 Cl  0  0  0  0  0  0
   -1.0377   -4.1619   20.3559 N   0  0  0  0  0  0
   -2.4231   -4.4045   20.7633 C   0  0  0  0  0  0
   -2.5408   -5.1665   22.1123 C   0  0  0  0  0  0
   -4.0167   -5.2278   22.5469 C   0  0  0  0  0  0
   -1.9214   -6.5808   22.0980 C   0  0  0  0  0  0
   -1.8524   -4.4174   23.0866 O   0  0  0  0  0  0
   -0.4286   -5.0609   19.5792 N   0  0  0  0  0  0
    0.7736   -4.5743   19.4033 C   0  0  0  0  0  0
    4.3247   -1.8069   19.8853 N   0  0  0  0  0  0
    5.5704   -2.0083   19.3950 C   0  0  0  0  0  0
    8.0117   -2.6757   18.2599 H   0  0  0  0  0  0
    4.3235   -5.9093   17.4713 H   0  0  0  0  0  0
    7.5755   -7.0331   16.3551 H   0  0  0  0  0  0
    5.5321   -8.1518   17.1929 H   0  0  0  0  0  0
    4.5676   -7.4078   15.9166 H   0  0  0  0  0  0
    6.8707   -9.3622   15.4625 H   0  0  0  0  0  0
    5.1329   -9.7278   15.2722 H   0  0  0  0  0  0
    7.1820  -10.0171   13.0745 H   0  0  0  0  0  0
    5.3393  -11.6085   12.5242 H   0  0  0  0  0  0
    4.1550  -10.3552   13.1059 H   0  0  0  0  0  0
    5.8524   -8.1628   11.0657 H   0  0  0  0  0  0
    6.9085   -9.5781   10.6401 H   0  0  0  0  0  0
    8.0223   -7.8344   13.9250 H   0  0  0  0  0  0
    7.1253   -7.0598   12.6137 H   0  0  0  0  0  0
    5.7967   -5.7106   14.2497 H   0  0  0  0  0  0
    7.5142   -5.4320   14.4786 H   0  0  0  0  0  0
    2.0384   -1.6434   20.5569 H   0  0  0  0  0  0
   -2.9304   -4.9574   19.9708 H   0  0  0  0  0  0
   -2.9179   -3.4343   20.8278 H   0  0  0  0  0  0
   -4.6259   -5.7391   21.8033 H   0  0  0  0  0  0
   -4.4393   -4.2312   22.6843 H   0  0  0  0  0  0
   -4.1462   -5.7629   23.4852 H   0  0  0  0  0  0
   -2.4312   -7.2255   21.3797 H   0  0  0  0  0  0
   -0.8678   -6.5638   21.8260 H   0  0  0  0  0  0
   -1.9875   -7.0582   23.0779 H   0  0  0  0  0  0
   -1.8114   -4.9065   23.9169 H   0  0  0  0  0  0
    1.4806   -5.1174   18.7927 H   0  0  0  0  0  0
    6.2976   -1.2300   19.5846 H   0  0  0  0  0  0
    5.0804   -7.9876   13.5389 H   0  0  0  0  0  0
  1  2  1  0  0  0
  2  7  1  0  0  0
  2  3  2  0  0  0
  3  4  1  0  0  0
  3 34  1  0  0  0
  4 33  1  0  0  0
  4  5  2  0  0  0
  5  6  1  0  0  0
  5 18  1  0  0  0
  6  7  2  0  0  0
  6 35  1  0  0  0
  7  8  1  0  0  0
  8 17  1  0  0  0
  8  9  1  0  0  0
  8 36  1  0  0  0
  9 10  1  0  0  0
  9 37  1  0  0  0
  9 38  1  0  0  0
 10 11  1  0  0  0
 10 39  1  0  0  0
 10 40  1  0  0  0
 11 12  1  0  0  0
 11 16  1  0  0  0
 11 62  1  0  0  0
 12 15  1  0  0  0
 12 13  1  0  0  0
 12 41  1  0  0  0
 13 14  1  0  0  0
 13 42  1  0  0  0
 13 43  1  0  0  0
 14 15  1  0  0  0
 15 44  1  0  0  0
 15 45  1  0  0  0
 16 17  1  0  0  0
 16 46  1  0  0  0
 16 47  1  0  0  0
 17 48  1  0  0  0
 17 49  1  0  0  0
 18 19  2  0  0  0
 19 20  1  0  0  0
 19 32  1  0  0  0
 20 21  1  0  0  0
 20 50  1  0  0  0
 21 31  1  0  0  0
 21 22  2  0  0  0
 22 23  1  0  0  0
 22 24  1  0  0  0
 24 25  1  0  0  0
 24 30  1  0  0  0
 25 26  1  0  0  0
 25 51  1  0  0  0
 25 52  1  0  0  0
 26 27  1  0  0  0
 26 28  1  0  0  0
 26 29  1  0  0  0
 27 53  1  0  0  0
 27 54  1  0  0  0
 27 55  1  0  0  0
 28 56  1  0  0  0
 28 57  1  0  0  0
 28 58  1  0  0  0
 29 59  1  0  0  0
 30 31  2  0  0  0
 31 60  1  0  0  0
 32 33  2  0  0  0
 33 61  1  0  0  0
M  CHG  1  11   1
M  END
> <s_m_source_file>
/home/yujie/leadopt/data/result/selection/LRRK2/lig_15.sdf

> <i_m_source_file_index>
1

> <i_lp_mmshare_version>
51139

> <i_f3d_flags>
0

> <s_epik_input>
W0NIMl0xT1tDSDJdW0NIXTFOKFtDSDJdW0NIMl0yKVtDSDJdW0NIMl1bQ0hdMmMoYyhDbClbY0hdMylbY0hdYyhjMzQpbmMobltjSF00KVtOSF1jNWMoQ2wpbihuW2NIXTUpW0NIMl1DKFtDSDNdKShbQ0gzXSlbT0hd

> <s_epik_cmdline>
J2VwaWtfcHl0aG9uJywgJy1waHQnLCAnMi4wJywgJy1waCcsICc3LjAnLCAnLXRuJywgJzgnLCAnLW1hJywgJzIwMCcsICctaW1hZScsICc8aW5maWxlLm1hZT4nLCAnLW9tYWUnLCAnPG91dGZpbGUubWFlPic=

> <r_epik_Ionization_Penalty>
  0.0960

> <r_epik_Ionization_Penalty_Charging>
  0.0953

> <r_epik_Ionization_Penalty_Neutral>
  0.0006

> <r_epik_State_Penalty>
  0.0855

> <r_epik_Charging_Adjusted_Penalty>
0.180866

> <i_epik_Tot_Q>
1

> <i_epik_Tot_abs_Q>
1

> <s_lp_Force_Field>
OPLS3e

> <r_lp_Energy>
32.7639

> <b_lp_Chiralities_Consistent>
1

> <s_lp_Variant>
/home/yujie/leadopt/data/result/selection/LRRK2/lig_15.sdf:1-1

> <s_i_glide_gridfile>
glide-grid_LRRK2

> <i_i_glide_lignum>
1

> <i_i_glide_rotatable_bonds>
7

> <r_i_docking_score>
-8.4958282043677

> <r_i_glide_ligand_efficiency>
-0.257449339526294

> <r_i_glide_ligand_efficiency_sa>
-0.825777593802893

> <r_i_glide_ligand_efficiency_ln>
-1.88942820360718

> <r_i_glide_gscore>
-8.5813561043677

> <r_i_glide_lipo>
-3.45281354581017

> <r_i_glide_hbond>
-0.600491395419009

> <r_i_glide_metal>
-0

> <r_i_glide_rewards>
-1.70607953004881

> <r_i_glide_evdw>
-41.9117240905762

> <r_i_glide_ecoul>
-7.16961860656738

> <r_i_glide_erotb>
0.352735160167657

> <r_i_glide_esite>
-0.00367779774344055

> <r_i_glide_emodel>
-80.2645696121504

> <r_i_glide_energy>
-49.0813426971436

> <r_i_glide_einternal>
4.66615676879883

> <i_i_glide_confnum>
163

> <i_i_glide_posenum>
187

> <r_i_glide_eff_state_penalty>
0.0855279

$$$$
