ejm_55
                    3D
 Schrodinger Suite 2021-2.
 33 34  0  0  1  0            999 V2000
   -1.9445   21.4797  -27.4683 C   0  0  0  0  0  0
   -2.8632   20.7119  -28.1988 C   0  0  0  0  0  0
   -3.5534   21.2514  -29.3113 C   0  0  0  0  0  0
   -3.3293   22.5988  -29.6631 C   0  0  0  0  0  0
   -2.3827   23.3563  -28.9359 C   0  0  0  0  0  0
   -1.6800   22.7948  -27.8623 C   0  0  0  0  0  0
   -2.0771   25.0098  -29.2931 Cl  0  0  0  0  0  0
   -4.0378   23.1674  -30.8564 C   0  0  0  0  0  0
   -4.1324   22.5228  -31.9012 O   0  0  0  0  0  0
   -4.5575   24.3844  -30.6896 N   0  0  0  0  0  0
   -5.3245   25.1116  -31.6048 C   0  0  0  0  0  0
   -5.9870   24.5545  -32.7186 C   0  0  0  0  0  0
   -6.7937   25.3971  -33.4916 C   0  0  0  0  0  0
   -6.9471   26.7077  -33.2275 N   0  0  0  0  0  0
   -6.3163   27.2531  -32.1644 C   0  0  0  0  0  0
   -5.5090   26.4651  -31.3159 C   0  0  0  0  0  0
   -6.5608   28.5916  -31.8374 N   0  0  0  0  0  0
   -5.7382   29.4288  -31.1516 C   0  0  0  0  0  0
   -4.6403   29.0921  -30.7396 O   0  0  0  0  0  0
   -4.5885   20.2479  -30.3076 Cl  0  0  0  0  0  0
   -1.4474   21.0541  -26.6085 H   0  0  0  0  0  0
   -3.0560   19.6872  -27.9159 H   0  0  0  0  0  0
   -0.9346   23.3757  -27.3388 H   0  0  0  0  0  0
   -4.4106   24.8815  -29.8228 H   0  0  0  0  0  0
   -5.8631   23.5071  -32.9516 H   0  0  0  0  0  0
   -7.3275   25.0019  -34.3434 H   0  0  0  0  0  0
   -5.0355   26.9013  -30.4487 H   0  0  0  0  0  0
   -7.4268   29.0308  -32.1179 H   0  0  0  0  0  0
   -5.2187   31.8157  -30.5000 C   0  0  0  0  0  0
   -5.6217   32.8232  -30.6028 H   0  0  0  0  0  0
   -4.9395   31.6408  -29.4610 H   0  0  0  0  0  0
   -6.2789   30.8216  -30.8972 O   0  0  0  0  0  0
   -4.3452   31.7001  -31.1417 H   0  0  0  0  0  0
  1  2  1  0  0  0
  1  6  2  0  0  0
  1 21  1  0  0  0
  2  3  2  0  0  0
  2 22  1  0  0  0
  3  4  1  0  0  0
  3 20  1  0  0  0
  4  5  2  0  0  0
  4  8  1  0  0  0
  5  6  1  0  0  0
  5  7  1  0  0  0
  6 23  1  0  0  0
  8  9  2  0  0  0
  8 10  1  0  0  0
 10 11  1  0  0  0
 10 24  1  0  0  0
 11 12  1  0  0  0
 11 16  2  0  0  0
 12 13  2  0  0  0
 12 25  1  0  0  0
 13 14  1  0  0  0
 13 26  1  0  0  0
 14 15  2  0  0  0
 15 16  1  0  0  0
 15 17  1  0  0  0
 16 27  1  0  0  0
 17 18  1  0  0  0
 17 28  1  0  0  0
 18 19  2  0  0  0
 18 32  1  0  0  0
 29 30  1  0  0  0
 29 31  1  0  0  0
 29 32  1  0  0  0
 29 33  1  0  0  0
M  END
> <s_m_entry_id>
753

> <s_m_entry_name>
Tyk2_ejm_55.1

> <r_user_dG.exp>
-9.21

> <r_m_Molecular_weight>
340.16807

> <s_m_Source_Path>
C:\Users\yujiethinkpad\Desktop\05A\Tyk2

> <s_m_Source_File>
Tyk2_ejm_55.sdf

> <i_m_Source_File_Index>
1

> <s_m_job_name>
align_ligands_0658

> <i_phase_Input_Structure_Number>
4

> <i_phase_Structure_Number>
4

> <r_phase_Similarity_to_Reference>
0.887425054349865

> <i_phase_Reference_Structure>
16

> <s_phase_Alignment_Method>
snapped core

> <s_phase_Alignment_Reason>


> <s_phase_Core_SMARTS>
a1aaaaa1A(=A)Aa2aaaaa2

> <s_f3d_frozen_atoms>
3 2 1 6 5 4 8 9 10 11 12 13 14 15 16 20 22 21 23 7 9 24 25 26 27

> <s_fepmapper_entryid>
6

> <i_fepmapper_bias>
0

> <i_fepmapper_affinity>
1

> <r_fepmapper_exp_dG>
-9.21

> <i_fepmapper_unit>
1

> <s_m_subgroup_title>
align_ligands_0658

> <s_m_subgroupid>
align_ligands_0658

> <b_m_subgroup_collapsed>
0

$$$$
