
                    3D
 Schrodinger Suite 2020-3.
 39 41  0  0  1  0            999 V2000
  -14.5840  -14.7120  -27.5540 C   0  0  0  0  0  0
  -15.1560  -15.5170  -26.5730 C   0  0  3  0  0  0
  -14.6840  -13.3310  -27.4340 C   0  0  0  0  0  0
  -15.8700  -14.9640  -25.5050 C   0  0  3  0  0  0
  -14.9850  -16.8890  -26.6810 N   0  0  0  0  0  0
  -15.3790  -12.7810  -26.3580 C   0  0  3  0  0  0
  -15.9900  -13.5830  -25.3920 C   0  0  0  0  0  0
  -16.4950  -15.9110  -24.5010 C   0  0  3  0  0  0
  -16.1290  -17.2020  -24.7270 N   0  0  3  0  0  0
  -17.2750  -15.6060  -23.5990 O   0  0  0  0  0  0
  -15.4370  -17.7150  -25.8030 C   0  0  3  0  0  0
  -15.2560  -19.1610  -25.9640 C   0  0  3  0  0  0
  -14.5830  -19.6080  -27.1050 C   0  0  0  0  0  0
  -14.3260  -20.9450  -27.2880 C   0  0  0  0  0  0
  -14.7480  -21.8820  -26.3420 C   0  0  3  0  0  0
  -15.4530  -21.4470  -25.2150 C   0  0  0  0  0  0
  -15.7100  -20.0930  -25.0240 C   0  0  0  0  0  0
  -15.4670  -11.4550  -26.2710 F   0  0  0  0  0  0
  -14.3950  -23.3650  -26.5140 C   0  0  0  0  0  0
  -15.5850  -24.2010  -26.0390 C   0  0  0  0  0  0
  -13.1690  -23.7640  -25.6880 C   0  0  0  0  0  0
  -14.0160  -23.6920  -27.9580 C   0  0  0  0  0  0
  -14.0470  -15.1530  -28.3810 H   0  0  0  0  0  0
  -14.2300  -12.6810  -28.1700 H   0  0  0  0  0  0
  -16.5320  -13.1390  -24.5690 H   0  0  0  0  0  0
  -16.5900  -17.8630  -24.1170 H   0  0  0  0  0  0
  -14.2270  -18.9240  -27.8640 H   0  0  0  0  0  0
  -13.7740  -21.2110  -28.1730 H   0  0  0  0  0  0
  -15.7830  -22.1540  -24.4700 H   0  0  0  0  0  0
  -16.2390  -19.7880  -24.1320 H   0  0  0  0  0  0
  -16.4450  -24.1250  -26.7060 H   0  0  0  0  0  0
  -15.9080  -23.8900  -25.0470 H   0  0  0  0  0  0
  -15.2790  -25.2370  -25.9760 H   0  0  0  0  0  0
  -12.3280  -23.1160  -25.9090 H   0  0  0  0  0  0
  -12.7990  -24.7580  -25.8880 H   0  0  0  0  0  0
  -13.3870  -23.7050  -24.6290 H   0  0  0  0  0  0
  -13.3000  -22.9540  -28.2920 H   0  0  0  0  0  0
  -14.8830  -23.6890  -28.6150 H   0  0  0  0  0  0
  -13.5110  -24.6570  -28.0470 H   0  0  0  0  0  0
  1  2  1  0  0  0
  1  3  1  0  0  0
  1 23  1  0  0  0
  2  4  1  0  0  0
  2  5  1  0  0  0
  3  6  1  0  0  0
  3 24  1  0  0  0
  4  7  1  0  0  0
  4  8  1  0  0  0
  5 11  1  0  0  0
  6  7  1  0  0  0
  6 18  1  0  0  0
  7 25  1  0  0  0
  8  9  1  0  0  0
  8 10  1  0  0  0
  9 11  1  0  0  0
  9 26  1  0  0  0
 11 12  1  0  0  0
 12 13  1  0  0  0
 12 17  1  0  0  0
 13 14  1  0  0  0
 13 27  1  0  0  0
 14 15  1  0  0  0
 14 28  1  0  0  0
 15 16  1  0  0  0
 15 19  1  0  0  0
 16 17  1  0  0  0
 16 29  1  0  0  0
 17 30  1  0  0  0
 19 20  1  0  0  0
 19 21  1  0  0  0
 19 22  1  0  0  0
 20 31  1  0  0  0
 20 32  1  0  0  0
 20 33  1  0  0  0
 21 34  1  0  0  0
 21 35  1  0  0  0
 21 36  1  0  0  0
 22 37  1  0  0  0
 22 38  1  0  0  0
 22 39  1  0  0  0
M  END
> <s_pdb_PDB_TITLE>
MX MODEL

> <i_pdb_PDB_Model>
1

> <s_pdb_PDB_format_version>
3.0

$$$$
