@<TRIPOS>MOLECULE
8f
49   52    1
SMALL
USER_CHARGES


@<TRIPOS>ATOM
      1 C1        -14.4976  -14.8078  -27.6041 C.ar      1 UNK         0.0000 
      2 C2        -15.0860  -15.6146  -26.6121 C.ar      1 UNK         0.0000 
      3 C3        -14.5776  -13.4189  -27.4910 C.ar      1 UNK         0.0000 
      4 C4        -15.7974  -15.0175  -25.5617 C.ar      1 UNK         0.0000 
      5 N5        -14.9497  -17.0161  -26.6693 N.2       1 UNK         0.0000 
      6 C6        -15.2599  -12.8300  -26.4299 C.ar      1 UNK         0.0000 
      7 C7        -15.8868  -13.6238  -25.4651 C.ar      1 UNK         0.0000 
      8 C8        -16.4709  -15.9214  -24.5493 C.ar      1 UNK         0.0000 
      9 N9        -16.1516  -17.2326  -24.7414 N.pl3     1 UNK         0.0000 
     10 O10       -17.2464  -15.5613  -23.6634 O.2       1 UNK         0.0000 
     11 C11       -15.4317  -17.8110  -25.7710 C.ar      1 UNK         0.0000 
     12 C12       -15.2745  -19.2883  -25.8445 C.ar      1 UNK         0.0000 
     13 C13       -14.7650  -19.8714  -27.0158 C.ar      1 UNK         0.0000 
     14 C14       -14.6263  -21.2503  -27.1285 C.ar      1 UNK         0.0000 
     15 C15       -14.9818  -22.0879  -26.0683 C.ar      1 UNK         0.0000 
     16 C16       -15.4738  -21.5135  -24.8915 C.ar      1 UNK         0.0000 
     17 C17       -15.6247  -20.1316  -24.7809 C.ar      1 UNK         0.0000 
     18 C18       -13.7514  -15.3866  -28.7929 C.3       1 UNK         0.0000 
     19 F19       -15.3111  -11.4823  -26.3542 F         1 UNK         0.0000 
     20 C20       -14.9368  -23.6188  -26.2176 C.3       1 UNK         0.0000 
     21 C21       -16.1502  -24.1096  -27.0129 C.3       1 UNK         0.0000 
     22 C22       -16.1516  -25.6356  -27.1525 C.3       1 UNK         0.0000 
     23 N23       -14.9512  -26.0113  -28.0249 N.4       1 UNK         0.0000 
     24 C24       -13.6603  -25.6760  -27.2735 C.3       1 UNK         0.0000 
     25 C25       -13.6303  -24.1771  -26.8303 C.3       1 UNK         0.0000 
     26 C26       -14.9970  -27.5130  -28.4020 C.3       1 UNK         0.0000 
     27 H27       -14.1111  -12.7839  -28.2306 H         1 UNK         0.0000 
     28 H28       -16.4256  -13.1525  -24.6535 H         1 UNK         0.0000 
     29 H29       -16.6444  -17.8520  -24.1113 H         1 UNK         0.0000 
     30 H30       -14.4912  -19.2630  -27.8667 H         1 UNK         0.0000 
     31 H31       -14.2683  -21.6534  -28.0631 H         1 UNK         0.0000 
     32 H32       -15.7622  -22.1415  -24.0621 H         1 UNK         0.0000 
     33 H33       -16.0195  -19.7338  -23.8570 H         1 UNK         0.0000 
     34 H34       -14.1621  -16.3516  -29.0752 H         1 UNK         0.0000 
     35 H35       -12.6990  -15.5158  -28.5462 H         1 UNK         0.0000 
     36 H36       -13.8228  -14.7393  -29.6666 H         1 UNK         0.0000 
     37 H37       -15.0135  -24.0196  -25.2058 H         1 UNK         0.0000 
     38 H38       -16.1698  -23.6636  -28.0062 H         1 UNK         0.0000 
     39 H39       -17.0502  -23.7611  -26.5261 H         1 UNK         0.0000 
     40 H40       -16.0823  -26.1523  -26.1962 H         1 UNK         0.0000 
     41 H41       -17.0390  -25.9961  -27.6633 H         1 UNK         0.0000 
     42 H42       -13.6015  -26.3876  -26.4633 H         1 UNK         0.0000 
     43 H43       -12.9129  -25.9511  -28.0021 H         1 UNK         0.0000 
     44 H44       -13.3516  -23.5663  -27.6833 H         1 UNK         0.0000 
     45 H45       -12.8254  -24.0344  -26.1062 H         1 UNK         0.0000 
     46 H46       -14.1499  -27.7115  -29.0618 H         1 UNK         0.0000 
     47 H47       -15.9380  -27.7110  -28.9167 H         1 UNK         0.0000 
     48 H48       -14.9278  -28.1070  -27.4908 H         1 UNK         0.0000 
     49 H49       -14.9894  -25.4443  -28.8633 H         1 UNK         0.0000 
@<TRIPOS>BOND
     1    1    2 ar   
     2    1    3 ar   
     3    1   18 1    
     4    2    4 ar   
     5    2    5 ar   
     6    3    6 ar   
     7    3   27 1    
     8    4    7 ar   
     9    4    8 ar   
    10    5   11 ar   
    11    6    7 ar   
    12    6   19 1    
    13    7   28 1    
    14    8    9 ar   
    15    8   10 2    
    16    9   11 ar   
    17    9   29 1    
    18   11   12 1    
    19   12   13 ar   
    20   12   17 ar   
    21   13   14 ar   
    22   13   30 1    
    23   14   15 ar   
    24   14   31 1    
    25   15   16 ar   
    26   15   20 1    
    27   16   17 ar   
    28   16   32 1    
    29   17   33 1    
    30   18   34 1    
    31   18   35 1    
    32   18   36 1    
    33   20   21 1    
    34   20   25 1    
    35   20   37 1    
    36   21   22 1    
    37   21   38 1    
    38   21   39 1    
    39   22   23 1    
    40   22   40 1    
    41   22   41 1    
    42   23   24 1    
    43   23   26 1    
    44   23   49 1    
    45   24   25 1    
    46   24   42 1    
    47   24   43 1    
    48   25   44 1    
    49   25   45 1    
    50   26   46 1    
    51   26   47 1    
    52   26   48 1    
@<TRIPOS>SUBSTRUCTURE
     1 UNK         1 GROUP             0       ****    0 ROOT    
