@<TRIPOS>MOLECULE
5n
44   46    1
SMALL
USER_CHARGES


@<TRIPOS>ATOM
      1 C1        -15.1971  -19.2586  -25.9604 C.ar      1 UNK         0.0000 
      2 C2        -15.4619  -20.0875  -24.8625 C.ar      1 UNK         0.0000 
      3 C3        -14.7320  -19.8457  -27.1467 C.ar      1 UNK         0.0000 
      4 C4        -15.3732  -17.7885  -25.8846 C.ar      1 UNK         0.0000 
      5 C5        -15.2356  -21.4582  -24.9463 C.ar      1 UNK         0.0000 
      6 C6        -14.5189  -21.2175  -27.2320 C.ar      1 UNK         0.0000 
      7 C7        -14.7643  -22.0441  -26.1317 C.ar      1 UNK         0.0000 
      8 N8        -16.1228  -17.2312  -24.8599 N.pl3     1 UNK         0.0000 
      9 C9        -16.3920  -15.9186  -24.6105 C.ar      1 UNK         0.0000 
     10 N10       -14.8661  -16.9841  -26.7605 N.2       1 UNK         0.0000 
     11 C11       -15.0231  -15.5933  -26.6800 C.ar      1 UNK         0.0000 
     12 C12       -15.7490  -15.0059  -25.6350 C.ar      1 UNK         0.0000 
     13 C13       -15.8668  -13.6148  -25.5520 C.ar      1 UNK         0.0000 
     14 C14       -15.2558  -12.8198  -26.5261 C.ar      1 UNK         0.0000 
     15 C15       -14.5498  -13.4080  -27.5783 C.ar      1 UNK         0.0000 
     16 C16       -14.4351  -14.7960  -27.6619 C.ar      1 UNK         0.0000 
     17 O17       -17.0983  -15.5613  -23.6650 O.2       1 UNK         0.0000 
     18 C18       -14.4776  -23.5653  -26.1895 C.3       1 UNK         0.0000 
     19 C19       -15.7149  -24.3179  -25.6602 C.3       1 UNK         0.0000 
     20 C20       -13.2176  -23.8359  -25.3472 C.3       1 UNK         0.0000 
     21 O21       -14.1517  -23.9464  -27.5429 O.3       1 UNK         0.0000 
     22 F22       -15.3497  -11.4734  -26.4630 F         1 UNK         0.0000 
     23 C23       -14.5501  -25.2004  -28.1255 C.3       1 UNK         0.0000 
     24 C24       -13.9103  -26.4874  -27.5451 C.3       1 UNK         0.0000 
     25 O25       -12.5968  -26.7509  -28.0034 O.3       1 UNK         0.0000 
     26 H26       -15.8196  -19.6850  -23.9247 H         1 UNK         0.0000 
     27 H27       -14.5225  -19.2408  -28.0188 H         1 UNK         0.0000 
     28 H28       -15.4176  -22.0605  -24.0678 H         1 UNK         0.0000 
     29 H29       -14.1391  -21.6264  -28.1554 H         1 UNK         0.0000 
     30 H30       -16.6125  -17.8632  -24.2414 H         1 UNK         0.0000 
     31 H31       -16.4177  -13.1519  -24.7449 H         1 UNK         0.0000 
     32 H32       -14.0836  -12.7847  -28.3266 H         1 UNK         0.0000 
     33 H33       -13.8819  -15.2499  -28.4711 H         1 UNK         0.0000 
     34 H34       -15.8115  -24.1761  -24.5859 H         1 UNK         0.0000 
     35 H35       -15.7466  -25.3887  -25.8320 H         1 UNK         0.0000 
     36 H36       -16.5770  -23.9172  -26.1750 H         1 UNK         0.0000 
     37 H37       -13.4391  -23.9417  -24.2857 H         1 UNK         0.0000 
     38 H38       -12.5508  -22.9864  -25.4295 H         1 UNK         0.0000 
     39 H39       -12.6588  -24.7122  -25.6687 H         1 UNK         0.0000 
     40 H40       -14.3407  -25.1537  -29.1933 H         1 UNK         0.0000 
     41 H41       -15.6352  -25.2750  -28.0624 H         1 UNK         0.0000 
     42 H42       -14.5229  -27.3485  -27.8131 H         1 UNK         0.0000 
     43 H43       -13.8881  -26.4540  -26.4637 H         1 UNK         0.0000 
     44 H44       -12.6445  -27.1725  -28.8674 H         1 UNK         0.0000 
@<TRIPOS>BOND
     1    1    2 ar   
     2    1    3 ar   
     3    1    4 1    
     4    2    5 ar   
     5    2   26 1    
     6    3    6 ar   
     7    3   27 1    
     8    4    8 ar   
     9    4   10 ar   
    10    5    7 ar   
    11    5   28 1    
    12    6    7 ar   
    13    6   29 1    
    14    7   18 1    
    15    8    9 ar   
    16    8   30 1    
    17    9   12 ar   
    18    9   17 2    
    19   10   11 ar   
    20   11   12 ar   
    21   11   16 ar   
    22   12   13 ar   
    23   13   14 ar   
    24   13   31 1    
    25   14   15 ar   
    26   14   22 1    
    27   15   16 ar   
    28   15   32 1    
    29   16   33 1    
    30   18   19 1    
    31   18   20 1    
    32   18   21 1    
    33   19   34 1    
    34   19   35 1    
    35   19   36 1    
    36   20   37 1    
    37   20   38 1    
    38   20   39 1    
    39   21   23 1    
    40   23   24 1    
    41   23   40 1    
    42   23   41 1    
    43   24   25 1    
    44   24   42 1    
    45   24   43 1    
    46   25   44 1    
@<TRIPOS>SUBSTRUCTURE
     1 UNK         1 GROUP             0       ****    0 ROOT    
