@<TRIPOS>MOLECULE
5b
37   39    1
SMALL
USER_CHARGES


@<TRIPOS>ATOM
      1 C1        -14.7375  -14.6323  -27.5622 C.ar      1 UNK         0.0000 
      2 C2        -15.2209  -15.5030  -26.5843 C.ar      1 UNK         0.0000 
      3 C3        -14.8052  -13.2521  -27.3541 C.ar      1 UNK         0.0000 
      4 C4        -15.8290  -14.9959  -25.4322 C.ar      1 UNK         0.0000 
      5 N5        -15.0637  -16.8857  -26.7646 N.2       1 UNK         0.0000 
      6 C6        -15.3769  -12.7497  -26.1825 C.ar      1 UNK         0.0000 
      7 C7        -15.8955  -13.6216  -25.2220 C.ar      1 UNK         0.0000 
      8 C8        -16.3909  -15.9775  -24.4274 C.ar      1 UNK         0.0000 
      9 N9        -16.0862  -17.2568  -24.7503 N.pl3     1 UNK         0.0000 
     10 O10       -17.0800  -15.7139  -23.4429 O.2       1 UNK         0.0000 
     11 C11       -15.4531  -17.7422  -25.8760 C.ar      1 UNK         0.0000 
     12 C12       -15.2977  -19.2017  -26.0254 C.ar      1 UNK         0.0000 
     13 C13       -14.7218  -19.7203  -27.1921 C.ar      1 UNK         0.0000 
     14 C14       -14.5398  -21.0868  -27.3404 C.ar      1 UNK         0.0000 
     15 C15       -14.9310  -21.9625  -26.3286 C.ar      1 UNK         0.0000 
     16 C16       -15.5262  -21.4542  -25.1705 C.ar      1 UNK         0.0000 
     17 C17       -15.7136  -20.0876  -25.0202 C.ar      1 UNK         0.0000 
     18 C18       -14.6142  -23.4546  -26.4203 C.3       1 UNK         0.0000 
     19 O19       -14.2412  -23.9050  -27.6919 O.3       1 UNK         0.0000 
     20 C20       -15.8331  -24.3311  -26.1345 C.3       1 UNK         0.0000 
     21 C21       -13.3967  -23.7268  -25.5432 C.3       1 UNK         0.0000 
     22 F22       -16.4397  -13.1379  -24.0896 F         1 UNK         0.0000 
     23 H23       -14.2807  -15.0241  -28.4595 H         1 UNK         0.0000 
     24 H24       -14.4099  -12.5699  -28.0945 H         1 UNK         0.0000 
     25 H25       -15.4149  -11.6823  -26.0197 H         1 UNK         0.0000 
     26 H26       -16.4975  -17.9291  -24.1171 H         1 UNK         0.0000 
     27 H27       -14.3964  -19.0698  -27.9924 H         1 UNK         0.0000 
     28 H28       -14.0590  -21.4564  -28.2342 H         1 UNK         0.0000 
     29 H29       -15.8125  -22.1120  -24.3626 H         1 UNK         0.0000 
     30 H30       -16.1645  -19.7415  -24.1011 H         1 UNK         0.0000 
     31 H31       -14.0527  -24.8497  -27.6378 H         1 UNK         0.0000 
     32 H32       -16.7037  -23.9737  -26.6848 H         1 UNK         0.0000 
     33 H33       -16.0714  -24.3463  -25.0730 H         1 UNK         0.0000 
     34 H34       -15.6834  -25.3773  -26.4099 H         1 UNK         0.0000 
     35 H35       -12.5749  -23.0602  -25.7999 H         1 UNK         0.0000 
     36 H36       -13.0449  -24.7489  -25.6799 H         1 UNK         0.0000 
     37 H37       -13.6168  -23.5810  -24.4847 H         1 UNK         0.0000 
@<TRIPOS>BOND
     1    1    2 ar   
     2    1    3 ar   
     3    1   23 1    
     4    2    4 ar   
     5    2    5 ar   
     6    3    6 ar   
     7    3   24 1    
     8    4    7 ar   
     9    4    8 ar   
    10    5   11 ar   
    11    6    7 ar   
    12    6   25 1    
    13    7   22 1    
    14    8    9 ar   
    15    8   10 2    
    16    9   11 ar   
    17    9   26 1    
    18   11   12 1    
    19   12   13 ar   
    20   12   17 ar   
    21   13   14 ar   
    22   13   27 1    
    23   14   15 ar   
    24   14   28 1    
    25   15   16 ar   
    26   15   18 1    
    27   16   17 ar   
    28   16   29 1    
    29   17   30 1    
    30   18   19 1    
    31   18   20 1    
    32   18   21 1    
    33   19   31 1    
    34   20   32 1    
    35   20   33 1    
    36   20   34 1    
    37   21   35 1    
    38   21   36 1    
    39   21   37 1    
@<TRIPOS>SUBSTRUCTURE
     1 UNK         1 GROUP             0       ****    0 ROOT    
