@<TRIPOS>MOLECULE
8d
46   49    1
SMALL
USER_CHARGES


@<TRIPOS>ATOM
      1 C1        -14.5244  -14.7755  -27.5404 C.ar      1 UNK         0.0000 
      2 C2        -15.1162  -15.5856  -26.5557 C.ar      1 UNK         0.0000 
      3 C3        -14.6126  -13.3870  -27.4243 C.ar      1 UNK         0.0000 
      4 C4        -15.8507  -14.9969  -25.5184 C.ar      1 UNK         0.0000 
      5 N5        -14.9512  -16.9828  -26.6050 N.2       1 UNK         0.0000 
      6 C6        -15.3071  -12.8055  -26.3678 C.ar      1 UNK         0.0000 
      7 C7        -15.9466  -13.6049  -25.4160 C.ar      1 UNK         0.0000 
      8 C8        -16.5334  -15.9075  -24.5193 C.ar      1 UNK         0.0000 
      9 N9        -16.1785  -17.2137  -24.6942 N.pl3     1 UNK         0.0000 
     10 O10       -17.3476  -15.5543  -23.6635 O.2       1 UNK         0.0000 
     11 C11       -15.4432  -17.7838  -25.7187 C.ar      1 UNK         0.0000 
     12 C12       -15.2778  -19.2588  -25.8075 C.ar      1 UNK         0.0000 
     13 C13       -14.7706  -19.8268  -26.9878 C.ar      1 UNK         0.0000 
     14 C14       -14.6315  -21.2044  -27.1217 C.ar      1 UNK         0.0000 
     15 C15       -14.9891  -22.0562  -26.0731 C.ar      1 UNK         0.0000 
     16 C16       -15.4751  -21.4979  -24.8861 C.ar      1 UNK         0.0000 
     17 C17       -15.6240  -20.1168  -24.7536 C.ar      1 UNK         0.0000 
     18 C18       -13.7517  -15.3550  -28.7136 C.3       1 UNK         0.0000 
     19 F19       -15.3512  -11.4588  -26.2838 F         1 UNK         0.0000 
     20 C20       -14.9424  -23.5841  -26.2418 C.3       1 UNK         0.0000 
     21 C21       -13.6275  -24.1410  -26.8461 C.3       1 UNK         0.0000 
     22 C22       -13.6510  -25.6466  -27.2708 C.3       1 UNK         0.0000 
     23 N23       -14.9478  -25.9976  -27.9976 N.4       1 UNK         0.0000 
     24 C24       -16.1519  -25.5972  -27.1498 C.3       1 UNK         0.0000 
     25 C25       -16.1496  -24.0686  -27.0565 C.3       1 UNK         0.0000 
     26 H26       -14.1335  -12.7478  -28.1517 H         1 UNK         0.0000 
     27 H27       -16.4955  -13.1480  -24.6047 H         1 UNK         0.0000 
     28 H28       -16.6654  -17.8407  -24.0677 H         1 UNK         0.0000 
     29 H29       -14.4992  -19.2033  -27.8299 H         1 UNK         0.0000 
     30 H30       -14.2711  -21.5952  -28.0614 H         1 UNK         0.0000 
     31 H31       -15.7622  -22.1352  -24.0637 H         1 UNK         0.0000 
     32 H32       -16.0174  -19.7330  -23.8227 H         1 UNK         0.0000 
     33 H33       -14.1988  -16.2900  -29.0479 H         1 UNK         0.0000 
     34 H34       -12.7236  -15.5508  -28.4141 H         1 UNK         0.0000 
     35 H35       -13.7339  -14.6772  -29.5672 H         1 UNK         0.0000 
     36 H36       -15.0303  -23.9956  -25.2342 H         1 UNK         0.0000 
     37 H37       -13.3518  -23.5408  -27.7063 H         1 UNK         0.0000 
     38 H38       -12.8282  -23.9831  -26.1195 H         1 UNK         0.0000 
     39 H39       -13.6092  -26.3608  -26.4633 H         1 UNK         0.0000 
     40 H40       -12.8978  -25.9512  -27.9876 H         1 UNK         0.0000 
     41 H41       -14.9695  -26.9907  -28.1948 H         1 UNK         0.0000 
     42 H42       -16.0851  -26.0882  -26.1788 H         1 UNK         0.0000 
     43 H43       -17.0202  -25.9948  -27.6634 H         1 UNK         0.0000 
     44 H44       -16.1265  -23.6473  -28.0623 H         1 UNK         0.0000 
     45 H45       -17.0653  -23.7009  -26.6092 H         1 UNK         0.0000 
     46 H46       -14.9828  -25.4999  -28.8775 H         1 UNK         0.0000 
@<TRIPOS>BOND
     1    1    2 ar   
     2    1    3 ar   
     3    1   18 1    
     4    2    4 ar   
     5    2    5 ar   
     6    3    6 ar   
     7    3   26 1    
     8    4    7 ar   
     9    4    8 ar   
    10    5   11 ar   
    11    6    7 ar   
    12    6   19 1    
    13    7   27 1    
    14    8    9 ar   
    15    8   10 2    
    16    9   11 ar   
    17    9   28 1    
    18   11   12 1    
    19   12   13 ar   
    20   12   17 ar   
    21   13   14 ar   
    22   13   29 1    
    23   14   15 ar   
    24   14   30 1    
    25   15   16 ar   
    26   15   20 1    
    27   16   17 ar   
    28   16   31 1    
    29   17   32 1    
    30   18   33 1    
    31   18   34 1    
    32   18   35 1    
    33   20   21 1    
    34   20   25 1    
    35   20   36 1    
    36   21   22 1    
    37   21   37 1    
    38   21   38 1    
    39   22   23 1    
    40   22   39 1    
    41   22   40 1    
    42   23   24 1    
    43   23   41 1    
    44   23   46 1    
    45   24   25 1    
    46   24   42 1    
    47   24   43 1    
    48   25   44 1    
    49   25   45 1    
@<TRIPOS>SUBSTRUCTURE
     1 UNK         1 GROUP             0       ****    0 ROOT    
