@<TRIPOS>MOLECULE
5f
37   39    1
SMALL
USER_CHARGES


@<TRIPOS>ATOM
      1 C1        -14.5642  -14.6384  -27.5273 C.ar      1 UNK         0.0000 
      2 C2        -15.1482  -15.5111  -26.6015 C.ar      1 UNK         0.0000 
      3 C3        -14.6521  -13.2595  -27.3238 C.ar      1 UNK         0.0000 
      4 C4        -15.8827  -14.9938  -25.5273 C.ar      1 UNK         0.0000 
      5 N5        -14.9607  -16.8981  -26.7338 N.2       1 UNK         0.0000 
      6 C6        -15.3427  -12.7540  -26.2229 C.ar      1 UNK         0.0000 
      7 C7        -15.9780  -13.6190  -25.3283 C.ar      1 UNK         0.0000 
      8 C8        -16.5556  -15.9641  -24.5881 C.ar      1 UNK         0.0000 
      9 N9        -16.1974  -17.2475  -24.8411 N.pl3     1 UNK         0.0000 
     10 O10       -17.3643  -15.6757  -23.7122 O.2       1 UNK         0.0000 
     11 C11       -15.4538  -17.7454  -25.8883 C.ar      1 UNK         0.0000 
     12 C12       -15.2992  -19.2055  -26.0279 C.ar      1 UNK         0.0000 
     13 C13       -15.8269  -20.1007  -25.0850 C.ar      1 UNK         0.0000 
     14 C14       -15.6451  -21.4700  -25.2387 C.ar      1 UNK         0.0000 
     15 C15       -14.9295  -21.9653  -26.3318 C.ar      1 UNK         0.0000 
     16 C16       -14.4231  -21.0764  -27.2810 C.ar      1 UNK         0.0000 
     17 C17       -14.6078  -19.7133  -27.1328 C.ar      1 UNK         0.0000 
     18 C18       -14.5764  -23.4515  -26.4059 C.3       1 UNK         0.0000 
     19 O19       -14.2382  -23.8893  -27.6950 O.3       1 UNK         0.0000 
     20 C20       -15.7378  -24.3889  -26.0561 C.3       1 UNK         0.0000 
     21 C21       -13.3308  -23.6575  -25.5430 C.3       1 UNK         0.0000 
     22 F22       -13.8633  -15.1104  -28.5859 F         1 UNK         0.0000 
     23 H23       -14.1704  -12.5789  -28.0136 H         1 UNK         0.0000 
     24 H24       -15.3804  -11.6856  -26.0675 H         1 UNK         0.0000 
     25 H25       -16.5260  -13.2239  -24.4843 H         1 UNK         0.0000 
     26 H26       -16.6798  -17.9151  -24.2551 H         1 UNK         0.0000 
     27 H27       -16.3566  -19.7562  -24.2096 H         1 UNK         0.0000 
     28 H28       -16.0208  -22.1393  -24.4788 H         1 UNK         0.0000 
     29 H29       -13.8443  -21.4300  -28.1202 H         1 UNK         0.0000 
     30 H30       -14.1924  -19.0573  -27.8847 H         1 UNK         0.0000 
     31 H31       -14.0150  -24.8240  -27.6454 H         1 UNK         0.0000 
     32 H32       -16.6699  -24.0548  -26.5050 H         1 UNK         0.0000 
     33 H33       -15.8750  -24.4385  -24.9779 H         1 UNK         0.0000 
     34 H34       -15.5735  -25.4220  -26.3718 H         1 UNK         0.0000 
     35 H35       -12.5376  -22.9611  -25.8134 H         1 UNK         0.0000 
     36 H36       -12.9378  -24.6629  -25.6817 H         1 UNK         0.0000 
     37 H37       -13.5408  -23.5212  -24.4800 H         1 UNK         0.0000 
@<TRIPOS>BOND
     1    1    2 ar   
     2    1    3 ar   
     3    1   22 1    
     4    2    4 ar   
     5    2    5 ar   
     6    3    6 ar   
     7    3   23 1    
     8    4    7 ar   
     9    4    8 ar   
    10    5   11 ar   
    11    6    7 ar   
    12    6   24 1    
    13    7   25 1    
    14    8    9 ar   
    15    8   10 2    
    16    9   11 ar   
    17    9   26 1    
    18   11   12 1    
    19   12   13 ar   
    20   12   17 ar   
    21   13   14 ar   
    22   13   27 1    
    23   14   15 ar   
    24   14   28 1    
    25   15   16 ar   
    26   15   18 1    
    27   16   17 ar   
    28   16   29 1    
    29   17   30 1    
    30   18   19 1    
    31   18   20 1    
    32   18   21 1    
    33   19   31 1    
    34   20   32 1    
    35   20   33 1    
    36   20   34 1    
    37   21   35 1    
    38   21   36 1    
    39   21   37 1    
@<TRIPOS>SUBSTRUCTURE
     1 UNK         1 GROUP             0       ****    0 ROOT    
