@<TRIPOS>MOLECULE
5o
47   49    1
SMALL
USER_CHARGES


@<TRIPOS>ATOM
      1 C1        -15.3450  -19.1365  -26.0277 C.ar      1 UNK         0.0000 
      2 C2        -15.8287  -20.0041  -25.0403 C.ar      1 UNK         0.0000 
      3 C3        -14.6494  -19.6781  -27.1161 C.ar      1 UNK         0.0000 
      4 C4        -15.6114  -21.3734  -25.1437 C.ar      1 UNK         0.0000 
      5 C5        -14.4534  -21.0504  -27.2249 C.ar      1 UNK         0.0000 
      6 N6        -15.0797  -16.8396  -26.7962 N.2       1 UNK         0.0000 
      7 C7        -14.9411  -21.9202  -26.2491 C.ar      1 UNK         0.0000 
      8 C8        -14.7174  -23.4472  -26.3565 C.3       1 UNK         0.0000 
      9 C9        -15.2121  -15.4451  -26.6641 C.ar      1 UNK         0.0000 
     10 C10       -15.8856  -14.9026  -25.5597 C.ar      1 UNK         0.0000 
     11 C11       -15.4771  -12.6758  -26.3957 C.ar      1 UNK         0.0000 
     12 C12       -14.8064  -13.2106  -27.4898 C.ar      1 UNK         0.0000 
     13 C13       -16.0203  -13.5169  -25.4209 C.ar      1 UNK         0.0000 
     14 C14       -14.6721  -14.5903  -27.6396 C.ar      1 UNK         0.0000 
     15 C15       -16.4601  -15.8518  -24.5285 C.ar      1 UNK         0.0000 
     16 N16       -16.2181  -17.1526  -24.8371 N.pl3     1 UNK         0.0000 
     17 C17       -15.5316  -17.6723  -25.9177 C.ar      1 UNK         0.0000 
     18 O18       -17.0968  -15.5416  -23.5233 O.2       1 UNK         0.0000 
     19 C19       -16.0886  -24.1459  -26.3732 C.3       1 UNK         0.0000 
     20 O20       -13.9745  -23.7493  -27.5590 O.3       1 UNK         0.0000 
     21 C21       -13.8348  -23.8741  -25.1800 C.3       1 UNK         0.0000 
     22 C22       -13.9391  -15.1231  -28.8574 C.3       1 UNK         0.0000 
     23 F23       -15.6115  -11.3343  -26.3138 F         1 UNK         0.0000 
     24 C24       -12.5786  -23.4229  -27.6930 C.3       1 UNK         0.0000 
     25 C25       -11.5993  -24.0909  -26.7047 C.3       1 UNK         0.0000 
     26 O26       -10.2664  -23.7087  -26.9378 O.3       1 UNK         0.0000 
     27 H27       -16.3593  -19.6397  -24.1712 H         1 UNK         0.0000 
     28 H28       -14.2603  -19.0378  -27.8948 H         1 UNK         0.0000 
     29 H29       -15.9770  -21.9973  -24.3439 H         1 UNK         0.0000 
     30 H30       -13.9076  -21.4302  -28.0753 H         1 UNK         0.0000 
     31 H31       -14.3905  -12.5391  -28.2267 H         1 UNK         0.0000 
     32 H32       -16.5404  -13.0953  -24.5734 H         1 UNK         0.0000 
     33 H33       -16.6563  -17.8081  -24.2063 H         1 UNK         0.0000 
     34 H34       -16.6433  -24.0186  -25.4478 H         1 UNK         0.0000 
     35 H35       -16.0953  -25.2082  -26.5876 H         1 UNK         0.0000 
     36 H36       -16.6148  -23.6851  -27.1907 H         1 UNK         0.0000 
     37 H37       -14.3494  -23.7841  -24.2225 H         1 UNK         0.0000 
     38 H38       -12.9787  -23.2079  -25.1484 H         1 UNK         0.0000 
     39 H39       -13.4451  -24.8835  -25.2653 H         1 UNK         0.0000 
     40 H40       -13.7952  -14.3631  -29.6261 H         1 UNK         0.0000 
     41 H41       -14.5198  -15.9337  -29.2895 H         1 UNK         0.0000 
     42 H42       -12.9647  -15.5167  -28.5732 H         1 UNK         0.0000 
     43 H43       -12.4676  -22.3457  -27.5952 H         1 UNK         0.0000 
     44 H44       -12.2697  -23.6429  -28.7147 H         1 UNK         0.0000 
     45 H45       -11.6557  -25.1731  -26.8146 H         1 UNK         0.0000 
     46 H46       -11.8403  -23.8769  -25.6698 H         1 UNK         0.0000 
     47 H47       -10.1870  -22.7599  -26.8041 H         1 UNK         0.0000 
@<TRIPOS>BOND
     1    1    2 ar   
     2    1    3 ar   
     3    1   17 1    
     4    2    4 ar   
     5    2   27 1    
     6    3    5 ar   
     7    3   28 1    
     8    4    7 ar   
     9    4   29 1    
    10    5    7 ar   
    11    5   30 1    
    12    6    9 ar   
    13    6   17 ar   
    14    7    8 1    
    15    8   19 1    
    16    8   20 1    
    17    8   21 1    
    18    9   10 ar   
    19    9   14 ar   
    20   10   13 ar   
    21   10   15 ar   
    22   11   12 ar   
    23   11   13 ar   
    24   11   23 1    
    25   12   14 ar   
    26   12   31 1    
    27   13   32 1    
    28   14   22 1    
    29   15   16 ar   
    30   15   18 2    
    31   16   17 ar   
    32   16   33 1    
    33   19   34 1    
    34   19   35 1    
    35   19   36 1    
    36   20   24 1    
    37   21   37 1    
    38   21   38 1    
    39   21   39 1    
    40   22   40 1    
    41   22   41 1    
    42   22   42 1    
    43   24   25 1    
    44   24   43 1    
    45   24   44 1    
    46   25   26 1    
    47   25   45 1    
    48   25   46 1    
    49   26   47 1    
@<TRIPOS>SUBSTRUCTURE
     1 UNK         1 GROUP             0       ****    0 ROOT    
