@<TRIPOS>MOLECULE
1b
31   33    1
SMALL
USER_CHARGES


@<TRIPOS>ATOM
      1 C1        -15.3524  -19.2206  -25.9684 C.ar      1 UNK         0.0000 
      2 C2        -14.6526  -19.7081  -27.0823 C.ar      1 UNK         0.0000 
      3 C3        -15.8555  -20.1235  -25.0241 C.ar      1 UNK         0.0000 
      4 C4        -14.4541  -21.0636  -27.2485 C.ar      1 UNK         0.0000 
      5 C5        -15.6357  -21.4854  -25.1840 C.ar      1 UNK         0.0000 
      6 N6        -15.0526  -16.9445  -26.6871 N.2       1 UNK         0.0000 
      7 C7        -14.9347  -21.9631  -26.2988 C.ar      1 UNK         0.0000 
      8 C8        -15.2162  -15.5610  -26.5929 C.ar      1 UNK         0.0000 
      9 C9        -15.9031  -15.0059  -25.5037 C.ar      1 UNK         0.0000 
     10 C10       -15.4462  -12.8187  -26.3599 C.ar      1 UNK         0.0000 
     11 C11       -14.7773  -13.3552  -27.4525 C.ar      1 UNK         0.0000 
     12 C12       -16.0203  -13.6235  -25.3815 C.ar      1 UNK         0.0000 
     13 C13       -14.6768  -14.7359  -27.5934 C.ar      1 UNK         0.0000 
     14 C14       -16.5313  -15.9392  -24.4895 C.ar      1 UNK         0.0000 
     15 N15       -16.2584  -17.2435  -24.7671 N.pl3     1 UNK         0.0000 
     16 C16       -15.5317  -17.7669  -25.8203 C.ar      1 UNK         0.0000 
     17 O17       -17.2406  -15.6098  -23.5374 O.2       1 UNK         0.0000 
     18 H18       -14.2525  -19.0464  -27.8382 H         1 UNK         0.0000 
     19 H19       -16.3981  -19.7943  -24.1510 H         1 UNK         0.0000 
     20 H20       -13.8938  -21.4078  -28.1049 H         1 UNK         0.0000 
     21 H21       -15.9903  -22.1635  -24.4209 H         1 UNK         0.0000 
     22 H22       -14.3604  -12.6891  -28.1964 H         1 UNK         0.0000 
     23 H23       -16.5458  -13.1713  -24.5494 H         1 UNK         0.0000 
     24 H24       -16.7352  -17.8915  -24.1540 H         1 UNK         0.0000 
     25 H25       -14.1941  -15.1755  -28.4537 H         1 UNK         0.0000 
     26 H26       -15.5319  -11.7476  -26.2520 H         1 UNK         0.0000 
     27 O27       -14.7216  -23.3010  -26.4574 O.3       1 UNK         0.0000 
     28 C28       -15.3339  -24.0453  -25.3080 C.3       1 UNK         0.0000 
     29 H29       -15.1636  -25.1144  -25.4348 H         1 UNK         0.0000 
     30 H30       -14.8779  -23.7133  -24.3753 H         1 UNK         0.0000 
     31 H31       -16.4058  -23.8498  -25.2776 H         1 UNK         0.0000 
@<TRIPOS>BOND
     1    1    2 ar   
     2    1    3 ar   
     3    1   16 1    
     4    2    4 ar   
     5    2   18 1    
     6    3    5 ar   
     7    3   19 1    
     8    4    7 ar   
     9    4   20 1    
    10    5    7 ar   
    11    5   21 1    
    12    6    8 ar   
    13    6   16 ar   
    14    7   27 1    
    15    8    9 ar   
    16    8   13 ar   
    17    9   12 ar   
    18    9   14 ar   
    19   10   11 ar   
    20   10   12 ar   
    21   10   26 1    
    22   11   13 ar   
    23   11   22 1    
    24   12   23 1    
    25   13   25 1    
    26   14   15 ar   
    27   14   17 2    
    28   15   16 ar   
    29   15   24 1    
    30   27   28 1    
    31   28   29 1    
    32   28   30 1    
    33   28   31 1    
@<TRIPOS>SUBSTRUCTURE
     1 UNK         1 GROUP             0       ****    0 ROOT    
