@<TRIPOS>MOLECULE
title: molecule 1
39   41    1
SMALL
USER_CHARGES


@<TRIPOS>ATOM
      1 C1        -14.5840  -14.7120  -27.5540 C.3       1 UNK         0.0000 
      2 C2        -15.1560  -15.5170  -26.5730 C.3       1 UNK         0.0000 
      3 C3        -14.6840  -13.3310  -27.4340 C.3       1 UNK         0.0000 
      4 C4        -15.8700  -14.9640  -25.5050 C.3       1 UNK         0.0000 
      5 N5        -14.9850  -16.8890  -26.6810 N.3       1 UNK         0.0000 
      6 C6        -15.3790  -12.7810  -26.3580 C.3       1 UNK         0.0000 
      7 C7        -15.9900  -13.5830  -25.3920 C.3       1 UNK         0.0000 
      8 C8        -16.4950  -15.9110  -24.5010 C.3       1 UNK         0.0000 
      9 N9        -16.1290  -17.2020  -24.7270 N.3       1 UNK         0.0000 
     10 O10       -17.2750  -15.6060  -23.5990 O.3       1 UNK         0.0000 
     11 C11       -15.4370  -17.7150  -25.8030 C.3       1 UNK         0.0000 
     12 C12       -15.2560  -19.1610  -25.9640 C.3       1 UNK         0.0000 
     13 C13       -14.5830  -19.6080  -27.1050 C.3       1 UNK         0.0000 
     14 C14       -14.3260  -20.9450  -27.2880 C.3       1 UNK         0.0000 
     15 C15       -14.7480  -21.8820  -26.3420 C.3       1 UNK         0.0000 
     16 C16       -15.4530  -21.4470  -25.2150 C.3       1 UNK         0.0000 
     17 C17       -15.7100  -20.0930  -25.0240 C.3       1 UNK         0.0000 
     18 F18       -15.4670  -11.4550  -26.2710 F         1 UNK         0.0000 
     19 C19       -14.3950  -23.3650  -26.5140 C.3       1 UNK         0.0000 
     20 C20       -15.5850  -24.2010  -26.0390 C.3       1 UNK         0.0000 
     21 C21       -13.1690  -23.7640  -25.6880 C.3       1 UNK         0.0000 
     22 C22       -14.0160  -23.6920  -27.9580 C.3       1 UNK         0.0000 
     23 H23       -14.0470  -15.1530  -28.3810 H         1 UNK         0.0000 
     24 H24       -14.2300  -12.6810  -28.1700 H         1 UNK         0.0000 
     25 H25       -16.5320  -13.1390  -24.5690 H         1 UNK         0.0000 
     26 H26       -16.5900  -17.8630  -24.1170 H         1 UNK         0.0000 
     27 H27       -14.2270  -18.9240  -27.8640 H         1 UNK         0.0000 
     28 H28       -13.7740  -21.2110  -28.1730 H         1 UNK         0.0000 
     29 H29       -15.7830  -22.1540  -24.4700 H         1 UNK         0.0000 
     30 H30       -16.2390  -19.7880  -24.1320 H         1 UNK         0.0000 
     31 H31       -16.4450  -24.1250  -26.7060 H         1 UNK         0.0000 
     32 H32       -15.9080  -23.8900  -25.0470 H         1 UNK         0.0000 
     33 H33       -15.2790  -25.2370  -25.9760 H         1 UNK         0.0000 
     34 H34       -12.3280  -23.1160  -25.9090 H         1 UNK         0.0000 
     35 H35       -12.7990  -24.7580  -25.8880 H         1 UNK         0.0000 
     36 H36       -13.3870  -23.7050  -24.6290 H         1 UNK         0.0000 
     37 H37       -13.3000  -22.9540  -28.2920 H         1 UNK         0.0000 
     38 H38       -14.8830  -23.6890  -28.6150 H         1 UNK         0.0000 
     39 H39       -13.5110  -24.6570  -28.0470 H         1 UNK         0.0000 
@<TRIPOS>BOND
     1    1    2 1    
     2    1    3 1    
     3    1   23 1    
     4    2    4 1    
     5    2    5 1    
     6    3    6 1    
     7    3   24 1    
     8    4    7 1    
     9    4    8 1    
    10    5   11 1    
    11    6    7 1    
    12    6   18 1    
    13    7   25 1    
    14    8    9 1    
    15    8   10 1    
    16    9   11 1    
    17    9   26 1    
    18   11   12 1    
    19   12   13 1    
    20   12   17 1    
    21   13   14 1    
    22   13   27 1    
    23   14   15 1    
    24   14   28 1    
    25   15   16 1    
    26   15   19 1    
    27   16   17 1    
    28   16   29 1    
    29   17   30 1    
    30   19   20 1    
    31   19   21 1    
    32   19   22 1    
    33   20   31 1    
    34   20   32 1    
    35   20   33 1    
    36   21   34 1    
    37   21   35 1    
    38   21   36 1    
    39   22   37 1    
    40   22   38 1    
    41   22   39 1    
@<TRIPOS>SUBSTRUCTURE
     1 UNK         1 GROUP             0       ****    0 ROOT    
