@<TRIPOS>MOLECULE
5g
37   39    1
SMALL
USER_CHARGES


@<TRIPOS>ATOM
      1 C1        -14.5341  -14.6449  -27.5575 C.ar      1 UNK         0.0000 
      2 C2        -15.0978  -15.5129  -26.6098 C.ar      1 UNK         0.0000 
      3 C3        -14.6077  -13.2658  -27.3516 C.ar      1 UNK         0.0000 
      4 C4        -15.7922  -14.9870  -25.5133 C.ar      1 UNK         0.0000 
      5 N5        -14.9372  -16.9036  -26.7424 N.2       1 UNK         0.0000 
      6 C6        -15.2582  -12.7538  -26.2292 C.ar      1 UNK         0.0000 
      7 C7        -15.8700  -13.6113  -25.3131 C.ar      1 UNK         0.0000 
      8 C8        -16.4499  -15.9479  -24.5524 C.ar      1 UNK         0.0000 
      9 N9        -16.1281  -17.2371  -24.8190 N.pl3     1 UNK         0.0000 
     10 O10       -17.2230  -15.6491  -23.6483 O.2       1 UNK         0.0000 
     11 C11       -15.4171  -17.7439  -25.8846 C.ar      1 UNK         0.0000 
     12 C12       -15.2774  -19.2043  -26.0251 C.ar      1 UNK         0.0000 
     13 C13       -14.6087  -19.7171  -27.1419 C.ar      1 UNK         0.0000 
     14 C14       -14.4337  -21.0811  -27.2917 C.ar      1 UNK         0.0000 
     15 C15       -14.9292  -21.9658  -26.3338 C.ar      1 UNK         0.0000 
     16 C16       -15.6249  -21.4650  -25.2296 C.ar      1 UNK         0.0000 
     17 C17       -15.7964  -20.0948  -25.0737 C.ar      1 UNK         0.0000 
     18 C18       -14.5885  -23.4535  -26.4129 C.3       1 UNK         0.0000 
     19 O19       -14.2371  -23.8914  -27.6993 O.3       1 UNK         0.0000 
     20 C20       -15.7678  -24.3783  -26.0824 C.3       1 UNK         0.0000 
     21 C21       -13.3532  -23.6779  -25.5405 C.3       1 UNK         0.0000 
     22 Cl22      -13.7154  -15.2314  -28.9661 Cl        1 UNK         0.0000 
     23 H23       -14.1531  -12.5859  -28.0597 H         1 UNK         0.0000 
     24 H24       -15.2871  -11.6840  -26.0800 H         1 UNK         0.0000 
     25 H25       -16.3869  -13.2090  -24.4531 H         1 UNK         0.0000 
     26 H26       -16.5942  -17.8981  -24.2121 H         1 UNK         0.0000 
     27 H27       -14.2015  -19.0645  -27.9021 H         1 UNK         0.0000 
     28 H28       -13.8728  -21.4398  -28.1422 H         1 UNK         0.0000 
     29 H29       -15.9928  -22.1311  -24.4624 H         1 UNK         0.0000 
     30 H30       -16.3100  -19.7464  -24.1901 H         1 UNK         0.0000 
     31 H31       -14.0256  -24.8281  -27.6507 H         1 UNK         0.0000 
     32 H32       -16.6748  -24.0465  -26.5885 H         1 UNK         0.0000 
     33 H33       -15.9524  -24.4080  -25.0103 H         1 UNK         0.0000 
     34 H34       -15.5930  -25.4162  -26.3733 H         1 UNK         0.0000 
     35 H35       -12.5499  -22.9849  -25.7929 H         1 UNK         0.0000 
     36 H36       -12.9687  -24.6845  -25.6920 H         1 UNK         0.0000 
     37 H37       -13.5732  -23.5575  -24.4788 H         1 UNK         0.0000 
@<TRIPOS>BOND
     1    1    2 ar   
     2    1    3 ar   
     3    1   22 1    
     4    2    4 ar   
     5    2    5 ar   
     6    3    6 ar   
     7    3   23 1    
     8    4    7 ar   
     9    4    8 ar   
    10    5   11 ar   
    11    6    7 ar   
    12    6   24 1    
    13    7   25 1    
    14    8    9 ar   
    15    8   10 2    
    16    9   11 ar   
    17    9   26 1    
    18   11   12 1    
    19   12   13 ar   
    20   12   17 ar   
    21   13   14 ar   
    22   13   27 1    
    23   14   15 ar   
    24   14   28 1    
    25   15   16 ar   
    26   15   18 1    
    27   16   17 ar   
    28   16   29 1    
    29   17   30 1    
    30   18   19 1    
    31   18   20 1    
    32   18   21 1    
    33   19   31 1    
    34   20   32 1    
    35   20   33 1    
    36   20   34 1    
    37   21   35 1    
    38   21   36 1    
    39   21   37 1    
@<TRIPOS>SUBSTRUCTURE
     1 UNK         1 GROUP             0       ****    0 ROOT    
