@<TRIPOS>MOLECULE
5h
41   43    1
SMALL
USER_CHARGES


@<TRIPOS>ATOM
      1 C1        -14.6321  -14.6131  -27.5789 C.ar      1 UNK         0.0000 
      2 C2        -15.1582  -15.4760  -26.5985 C.ar      1 UNK         0.0000 
      3 C3        -14.7198  -13.2263  -27.3566 C.ar      1 UNK         0.0000 
      4 C4        -15.8099  -14.9532  -25.4732 C.ar      1 UNK         0.0000 
      5 N5        -15.0163  -16.8727  -26.7418 N.2       1 UNK         0.0000 
      6 C6        -15.3338  -12.7191  -26.2121 C.ar      1 UNK         0.0000 
      7 C7        -15.8975  -13.5773  -25.2707 C.ar      1 UNK         0.0000 
      8 C8        -16.4124  -15.9145  -24.4748 C.ar      1 UNK         0.0000 
      9 N9        -16.0704  -17.2031  -24.7417 N.pl3     1 UNK         0.0000 
     10 O10       -17.1581  -15.6132  -23.5452 O.2       1 UNK         0.0000 
     11 C11       -15.4259  -17.7159  -25.8489 C.ar      1 UNK         0.0000 
     12 C12       -15.2670  -19.1828  -25.9921 C.ar      1 UNK         0.0000 
     13 C13       -14.6478  -19.7009  -27.1380 C.ar      1 UNK         0.0000 
     14 C14       -14.4645  -21.0679  -27.2901 C.ar      1 UNK         0.0000 
     15 C15       -14.8926  -21.9587  -26.3028 C.ar      1 UNK         0.0000 
     16 C16       -15.5322  -21.4499  -25.1653 C.ar      1 UNK         0.0000 
     17 C17       -15.7215  -20.0777  -25.0122 C.ar      1 UNK         0.0000 
     18 C18       -14.5807  -23.4613  -26.4256 C.3       1 UNK         0.0000 
     19 O19       -14.2589  -23.8828  -27.7351 O.3       1 UNK         0.0000 
     20 C20       -15.7774  -24.3541  -26.0965 C.3       1 UNK         0.0000 
     21 C21       -13.3649  -23.7811  -25.5544 C.3       1 UNK         0.0000 
     22 O22       -14.0089  -15.1610  -28.6904 O.3       1 UNK         0.0000 
     23 C23       -13.4790  -14.2957  -29.6929 C.3       1 UNK         0.0000 
     24 H24       -14.3038  -12.5168  -28.0559 H         1 UNK         0.0000 
     25 H25       -15.3670  -11.6496  -26.0662 H         1 UNK         0.0000 
     26 H26       -16.3822  -13.1806  -24.3897 H         1 UNK         0.0000 
     27 H27       -16.5117  -17.8636  -24.1170 H         1 UNK         0.0000 
     28 H28       -14.2910  -19.0470  -27.9228 H         1 UNK         0.0000 
     29 H29       -13.9561  -21.4294  -28.1721 H         1 UNK         0.0000 
     30 H30       -15.8610  -22.1093  -24.3753 H         1 UNK         0.0000 
     31 H31       -16.2079  -19.7296  -24.1121 H         1 UNK         0.0000 
     32 H32       -14.0757  -24.8295  -27.7157 H         1 UNK         0.0000 
     33 H33       -16.6353  -24.0351  -26.6807 H         1 UNK         0.0000 
     34 H34       -16.0154  -24.3110  -25.0354 H         1 UNK         0.0000 
     35 H35       -15.6023  -25.4031  -26.3485 H         1 UNK         0.0000 
     36 H36       -12.4970  -23.2035  -25.8704 H         1 UNK         0.0000 
     37 H37       -13.1139  -24.8310  -25.6259 H         1 UNK         0.0000 
     38 H38       -13.5469  -23.5576  -24.5025 H         1 UNK         0.0000 
     39 H39       -13.0965  -14.8894  -30.5215 H         1 UNK         0.0000 
     40 H40       -12.6505  -13.6919  -29.3183 H         1 UNK         0.0000 
     41 H41       -14.2476  -13.6342  -30.0951 H         1 UNK         0.0000 
@<TRIPOS>BOND
     1    1    2 ar   
     2    1    3 ar   
     3    1   22 1    
     4    2    4 ar   
     5    2    5 ar   
     6    3    6 ar   
     7    3   24 1    
     8    4    7 ar   
     9    4    8 ar   
    10    5   11 ar   
    11    6    7 ar   
    12    6   25 1    
    13    7   26 1    
    14    8    9 ar   
    15    8   10 2    
    16    9   11 ar   
    17    9   27 1    
    18   11   12 1    
    19   12   13 ar   
    20   12   17 ar   
    21   13   14 ar   
    22   13   28 1    
    23   14   15 ar   
    24   14   29 1    
    25   15   16 ar   
    26   15   18 1    
    27   16   17 ar   
    28   16   30 1    
    29   17   31 1    
    30   18   19 1    
    31   18   20 1    
    32   18   21 1    
    33   19   32 1    
    34   20   33 1    
    35   20   34 1    
    36   20   35 1    
    37   21   36 1    
    38   21   37 1    
    39   21   38 1    
    40   22   23 1    
    41   23   39 1    
    42   23   40 1    
    43   23   41 1    
@<TRIPOS>SUBSTRUCTURE
     1 UNK         1 GROUP             0       ****    0 ROOT    
