@<TRIPOS>MOLECULE
5m
40   42    1
SMALL
USER_CHARGES


@<TRIPOS>ATOM
      1 C1        -15.3524  -19.2206  -25.9684 C.ar      1 UNK         0.0000 
      2 C2        -14.6526  -19.7081  -27.0823 C.ar      1 UNK         0.0000 
      3 C3        -15.8555  -20.1235  -25.0241 C.ar      1 UNK         0.0000 
      4 C4        -14.4541  -21.0636  -27.2485 C.ar      1 UNK         0.0000 
      5 C5        -15.6357  -21.4854  -25.1840 C.ar      1 UNK         0.0000 
      6 N6        -15.0526  -16.9445  -26.6871 N.2       1 UNK         0.0000 
      7 C7        -14.9347  -21.9631  -26.2988 C.ar      1 UNK         0.0000 
      8 C8        -14.5888  -23.4446  -26.4247 C.3       1 UNK         0.0000 
      9 C9        -15.2162  -15.5610  -26.5929 C.ar      1 UNK         0.0000 
     10 C10       -15.9031  -15.0059  -25.5037 C.ar      1 UNK         0.0000 
     11 C11       -15.4462  -12.8187  -26.3599 C.ar      1 UNK         0.0000 
     12 C12       -14.7773  -13.3552  -27.4525 C.ar      1 UNK         0.0000 
     13 C13       -16.0203  -13.6235  -25.3815 C.ar      1 UNK         0.0000 
     14 C14       -14.6768  -14.7359  -27.5934 C.ar      1 UNK         0.0000 
     15 C15       -16.5313  -15.9392  -24.4895 C.ar      1 UNK         0.0000 
     16 N16       -16.2584  -17.2435  -24.7671 N.pl3     1 UNK         0.0000 
     17 C17       -15.5317  -17.7669  -25.8203 C.ar      1 UNK         0.0000 
     18 O18       -17.2406  -15.6098  -23.5374 O.2       1 UNK         0.0000 
     19 C19       -15.7674  -24.3602  -26.0940 C.3       1 UNK         0.0000 
     20 O20       -14.2652  -23.8414  -27.7410 O.3       1 UNK         0.0000 
     21 C21       -13.3585  -23.6997  -25.5565 C.3       1 UNK         0.0000 
     22 C22       -13.9802  -15.2817  -28.8279 C.3       1 UNK         0.0000 
     23 F23       -15.5606  -11.4961  -26.2801 F         1 UNK         0.0000 
     24 H24       -14.2525  -19.0464  -27.8382 H         1 UNK         0.0000 
     25 H25       -16.3981  -19.7943  -24.1510 H         1 UNK         0.0000 
     26 H26       -13.8938  -21.4078  -28.1049 H         1 UNK         0.0000 
     27 H27       -15.9903  -22.1635  -24.4209 H         1 UNK         0.0000 
     28 H28       -14.3604  -12.6891  -28.1964 H         1 UNK         0.0000 
     29 H29       -16.5458  -13.1713  -24.5494 H         1 UNK         0.0000 
     30 H30       -16.7352  -17.8915  -24.1540 H         1 UNK         0.0000 
     31 H31       -16.6293  -24.0551  -26.6777 H         1 UNK         0.0000 
     32 H32       -16.0069  -24.3345  -25.0330 H         1 UNK         0.0000 
     33 H33       -15.5729  -25.4035  -26.3467 H         1 UNK         0.0000 
     34 H34       -14.0509  -24.7825  -27.7322 H         1 UNK         0.0000 
     35 H35       -12.5192  -23.0885  -25.8861 H         1 UNK         0.0000 
     36 H36       -13.0630  -24.7313  -25.6290 H         1 UNK         0.0000 
     37 H37       -13.5418  -23.4778  -24.5056 H         1 UNK         0.0000 
     38 H38       -14.0711  -14.5965  -29.6735 H         1 UNK         0.0000 
     39 H39       -14.4139  -16.2335  -29.1342 H         1 UNK         0.0000 
     40 H40       -12.9197  -15.4294  -28.6265 H         1 UNK         0.0000 
@<TRIPOS>BOND
     1    1    2 ar   
     2    1    3 ar   
     3    1   17 1    
     4    2    4 ar   
     5    2   24 1    
     6    3    5 ar   
     7    3   25 1    
     8    4    7 ar   
     9    4   26 1    
    10    5    7 ar   
    11    5   27 1    
    12    6    9 ar   
    13    6   17 ar   
    14    7    8 1    
    15    8   19 1    
    16    8   20 1    
    17    8   21 1    
    18    9   10 ar   
    19    9   14 ar   
    20   10   13 ar   
    21   10   15 ar   
    22   11   12 ar   
    23   11   13 ar   
    24   11   23 1    
    25   12   14 ar   
    26   12   28 1    
    27   13   29 1    
    28   14   22 1    
    29   15   16 ar   
    30   15   18 2    
    31   16   17 ar   
    32   16   30 1    
    33   19   31 1    
    34   19   32 1    
    35   19   33 1    
    36   20   34 1    
    37   21   35 1    
    38   21   36 1    
    39   21   37 1    
    40   22   38 1    
    41   22   39 1    
    42   22   40 1    
@<TRIPOS>SUBSTRUCTURE
     1 UNK         1 GROUP             0       ****    0 ROOT    
