@<TRIPOS>MOLECULE
5l
37   39    1
SMALL
USER_CHARGES


@<TRIPOS>ATOM
      1 C1        -15.3002  -19.2006  -26.0265 C.ar      1 UNK         0.0000 
      2 C2        -15.7139  -20.0866  -25.0199 C.ar      1 UNK         0.0000 
      3 C3        -14.7328  -19.7204  -27.1959 C.ar      1 UNK         0.0000 
      4 C4        -15.5262  -21.4548  -25.1704 C.ar      1 UNK         0.0000 
      5 C5        -14.5510  -21.0858  -27.3440 C.ar      1 UNK         0.0000 
      6 N6        -14.9761  -16.8867  -26.7340 N.2       1 UNK         0.0000 
      7 C7        -14.9308  -21.9629  -26.3290 C.ar      1 UNK         0.0000 
      8 C8        -14.5881  -23.4511  -26.4179 C.3       1 UNK         0.0000 
      9 C9        -16.5444  -15.9689  -24.5640 C.ar      1 UNK         0.0000 
     10 N10       -16.1761  -17.2463  -24.8220 N.pl3     1 UNK         0.0000 
     11 C11       -15.4513  -17.7394  -25.8850 C.ar      1 UNK         0.0000 
     12 O12       -17.3758  -15.7040  -23.6992 O.2       1 UNK         0.0000 
     13 C13       -15.7761  -24.3593  -26.0992 C.3       1 UNK         0.0000 
     14 O14       -14.2360  -23.8967  -27.6992 O.3       1 UNK         0.0000 
     15 C15       -13.3505  -23.6941  -25.5581 C.3       1 UNK         0.0000 
     16 C16       -15.1508  -15.4985  -26.5840 C.ar      1 UNK         0.0000 
     17 C17       -15.8726  -14.9888  -25.4979 C.ar      1 UNK         0.0000 
     18 C18       -15.9461  -13.6145  -25.2800 C.ar      1 UNK         0.0000 
     19 C19       -15.3326  -12.7448  -26.1831 C.ar      1 UNK         0.0000 
     20 C20       -14.6579  -13.2427  -27.2994 C.ar      1 UNK         0.0000 
     21 C21       -14.5674  -14.6209  -27.5072 C.ar      1 UNK         0.0000 
     22 F22       -13.8810  -15.0871  -28.5782 F         1 UNK         0.0000 
     23 F23       -16.5760  -13.1269  -24.1896 F         1 UNK         0.0000 
     24 H24       -16.1615  -19.7384  -24.0998 H         1 UNK         0.0000 
     25 H25       -14.4118  -19.0716  -27.9995 H         1 UNK         0.0000 
     26 H26       -15.8081  -22.1136  -24.3616 H         1 UNK         0.0000 
     27 H27       -14.0716  -21.4524  -28.2397 H         1 UNK         0.0000 
     28 H28       -16.6579  -17.9163  -24.2374 H         1 UNK         0.0000 
     29 H29       -16.6617  -24.0400  -26.6490 H         1 UNK         0.0000 
     30 H30       -16.0045  -24.3593  -25.0354 H         1 UNK         0.0000 
     31 H31       -15.5956  -25.4051  -26.3563 H         1 UNK         0.0000 
     32 H32       -14.1133  -24.8528  -27.6650 H         1 UNK         0.0000 
     33 H33       -12.5490  -23.0067  -25.8239 H         1 UNK         0.0000 
     34 H34       -12.9761  -24.7077  -25.6991 H         1 UNK         0.0000 
     35 H35       -13.5598  -23.5591  -24.4960 H         1 UNK         0.0000 
     36 H36       -15.3724  -11.6781  -26.0178 H         1 UNK         0.0000 
     37 H37       -14.1860  -12.5585  -27.9922 H         1 UNK         0.0000 
@<TRIPOS>BOND
     1    1    2 ar   
     2    1    3 ar   
     3    1   11 1    
     4    2    4 ar   
     5    2   24 1    
     6    3    5 ar   
     7    3   25 1    
     8    4    7 ar   
     9    4   26 1    
    10    5    7 ar   
    11    5   27 1    
    12    6   11 ar   
    13    6   16 ar   
    14    7    8 1    
    15    8   13 1    
    16    8   14 1    
    17    8   15 1    
    18    9   10 ar   
    19    9   12 2    
    20    9   17 ar   
    21   10   11 ar   
    22   10   28 1    
    23   13   29 1    
    24   13   30 1    
    25   13   31 1    
    26   14   32 1    
    27   15   33 1    
    28   15   34 1    
    29   15   35 1    
    30   16   17 ar   
    31   16   21 ar   
    32   17   18 ar   
    33   18   19 ar   
    34   18   23 1    
    35   19   20 ar   
    36   19   36 1    
    37   20   21 ar   
    38   20   37 1    
    39   21   22 1    
@<TRIPOS>SUBSTRUCTURE
     1 UNK         1 GROUP             0       ****    0 ROOT    
