@<TRIPOS>MOLECULE
8e
46   49    1
SMALL
USER_CHARGES


@<TRIPOS>ATOM
      1 C1        -14.7440  -14.5488  -27.6397 C.ar      1 UNK         0.0000 
      2 C2        -15.2222  -15.4109  -26.6401 C.ar      1 UNK         0.0000 
      3 C3        -14.8591  -13.1692  -27.4748 C.ar      1 UNK         0.0000 
      4 C4        -15.8582  -14.8736  -25.5086 C.ar      1 UNK         0.0000 
      5 N5        -15.0518  -16.8036  -26.7731 N.2       1 UNK         0.0000 
      6 C6        -15.4628  -12.6413  -26.3347 C.ar      1 UNK         0.0000 
      7 C7        -15.9779  -13.4879  -25.3505 C.ar      1 UNK         0.0000 
      8 C8        -16.4074  -15.8323  -24.4721 C.ar      1 UNK         0.0000 
      9 N9        -16.1816  -17.1328  -24.8095 N.pl3     1 UNK         0.0000 
     10 O10       -17.0140  -15.5193  -23.4454 O.2       1 UNK         0.0000 
     11 C11       -15.4957  -17.6480  -25.8989 C.ar      1 UNK         0.0000 
     12 C12       -15.3321  -19.1204  -26.0396 C.ar      1 UNK         0.0000 
     13 C13       -15.8398  -19.9770  -25.0510 C.ar      1 UNK         0.0000 
     14 C14       -15.6725  -21.3559  -25.1428 C.ar      1 UNK         0.0000 
     15 C15       -15.0037  -21.9226  -26.2340 C.ar      1 UNK         0.0000 
     16 C16       -14.5169  -21.0751  -27.2353 C.ar      1 UNK         0.0000 
     17 C17       -14.6698  -19.6915  -27.1368 C.ar      1 UNK         0.0000 
     18 F18       -14.1579  -15.0195  -28.7614 F         1 UNK         0.0000 
     19 F19       -15.5478  -11.2992  -26.1973 F         1 UNK         0.0000 
     20 C20       -14.7101  -23.4149  -26.2936 C.3       1 UNK         0.0000 
     21 C21       -15.9534  -24.1911  -26.7469 C.3       1 UNK         0.0000 
     22 C22       -15.6342  -25.6857  -26.9262 C.3       1 UNK         0.0000 
     23 N23       -14.5516  -25.8523  -27.9018 N.4       1 UNK         0.0000 
     24 C24       -13.3243  -25.2116  -27.4171 C.3       1 UNK         0.0000 
     25 C25       -13.5505  -23.6979  -27.2575 C.3       1 UNK         0.0000 
     26 C26       -14.2997  -27.2875  -28.1026 C.3       1 UNK         0.0000 
     27 H27       -14.4707  -12.5054  -28.2336 H         1 UNK         0.0000 
     28 H28       -16.4556  -13.0654  -24.4762 H         1 UNK         0.0000 
     29 H29       -16.6413  -17.7854  -24.1871 H         1 UNK         0.0000 
     30 H30       -16.3480  -19.5775  -24.1847 H         1 UNK         0.0000 
     31 H31       -16.0409  -21.9665  -24.3328 H         1 UNK         0.0000 
     32 H32       -13.9848  -21.4818  -28.0842 H         1 UNK         0.0000 
     33 H33       -14.2604  -19.0777  -27.9262 H         1 UNK         0.0000 
     34 H34       -14.4329  -23.7212  -25.2849 H         1 UNK         0.0000 
     35 H35       -16.7537  -24.0684  -26.0171 H         1 UNK         0.0000 
     36 H36       -16.3288  -23.7780  -27.6831 H         1 UNK         0.0000 
     37 H37       -16.5279  -26.2064  -27.2702 H         1 UNK         0.0000 
     38 H38       -15.3598  -26.1293  -25.9692 H         1 UNK         0.0000 
     39 H39       -12.5120  -25.3822  -28.1236 H         1 UNK         0.0000 
     40 H40       -13.0131  -25.6477  -26.4678 H         1 UNK         0.0000 
     41 H41       -12.6398  -23.2241  -26.8912 H         1 UNK         0.0000 
     42 H42       -13.7573  -23.2503  -28.2296 H         1 UNK         0.0000 
     43 H43       -15.2336  -27.7482  -28.4257 H         1 UNK         0.0000 
     44 H44       -13.9580  -27.7278  -27.1672 H         1 UNK         0.0000 
     45 H45       -13.5429  -27.3868  -28.8818 H         1 UNK         0.0000 
     46 H46       -14.8253  -25.4208  -28.7730 H         1 UNK         0.0000 
@<TRIPOS>BOND
     1    1    2 ar   
     2    1    3 ar   
     3    1   18 1    
     4    2    4 ar   
     5    2    5 ar   
     6    3    6 ar   
     7    3   27 1    
     8    4    7 ar   
     9    4    8 ar   
    10    5   11 ar   
    11    6    7 ar   
    12    6   19 1    
    13    7   28 1    
    14    8    9 ar   
    15    8   10 2    
    16    9   11 ar   
    17    9   29 1    
    18   11   12 1    
    19   12   13 ar   
    20   12   17 ar   
    21   13   14 ar   
    22   13   30 1    
    23   14   15 ar   
    24   14   31 1    
    25   15   16 ar   
    26   15   20 1    
    27   16   17 ar   
    28   16   32 1    
    29   17   33 1    
    30   20   21 1    
    31   20   25 1    
    32   20   34 1    
    33   21   22 1    
    34   21   35 1    
    35   21   36 1    
    36   22   23 1    
    37   22   37 1    
    38   22   38 1    
    39   23   24 1    
    40   23   26 1    
    41   23   46 1    
    42   24   25 1    
    43   24   39 1    
    44   24   40 1    
    45   25   41 1    
    46   25   42 1    
    47   26   43 1    
    48   26   44 1    
    49   26   45 1    
@<TRIPOS>SUBSTRUCTURE
     1 UNK         1 GROUP             0       ****    0 ROOT    
