@<TRIPOS>MOLECULE
8a
45   48    1
SMALL
USER_CHARGES


@<TRIPOS>ATOM
      1 C1        -14.4976  -14.8078  -27.6041 C.ar      1 UNK         0.0000 
      2 C2        -15.0860  -15.6146  -26.6121 C.ar      1 UNK         0.0000 
      3 C3        -14.5776  -13.4189  -27.4910 C.ar      1 UNK         0.0000 
      4 C4        -15.7974  -15.0175  -25.5617 C.ar      1 UNK         0.0000 
      5 N5        -14.9497  -17.0161  -26.6693 N.2       1 UNK         0.0000 
      6 C6        -15.2599  -12.8300  -26.4299 C.ar      1 UNK         0.0000 
      7 C7        -15.8868  -13.6238  -25.4651 C.ar      1 UNK         0.0000 
      8 C8        -16.4709  -15.9214  -24.5493 C.ar      1 UNK         0.0000 
      9 N9        -16.1516  -17.2326  -24.7414 N.pl3     1 UNK         0.0000 
     10 O10       -17.2464  -15.5613  -23.6634 O.2       1 UNK         0.0000 
     11 C11       -15.4317  -17.8110  -25.7710 C.ar      1 UNK         0.0000 
     12 C12       -15.2745  -19.2883  -25.8445 C.ar      1 UNK         0.0000 
     13 C13       -14.7650  -19.8714  -27.0158 C.ar      1 UNK         0.0000 
     14 C14       -14.6263  -21.2503  -27.1285 C.ar      1 UNK         0.0000 
     15 C15       -14.9818  -22.0879  -26.0683 C.ar      1 UNK         0.0000 
     16 C16       -15.4738  -21.5135  -24.8915 C.ar      1 UNK         0.0000 
     17 C17       -15.6247  -20.1316  -24.7809 C.ar      1 UNK         0.0000 
     18 F18       -15.3111  -11.4823  -26.3542 F         1 UNK         0.0000 
     19 N19       -14.9414  -23.4608  -26.2022 N.pl3     1 UNK         0.0000 
     20 C20       -16.1549  -23.9516  -26.9975 C.3       1 UNK         0.0000 
     21 C21       -16.1562  -25.4776  -27.1371 C.3       1 UNK         0.0000 
     22 N22       -14.9559  -25.8533  -28.0095 N.4       1 UNK         0.0000 
     23 C23       -13.6649  -25.5179  -27.2581 C.3       1 UNK         0.0000 
     24 C24       -13.6349  -24.0190  -26.8149 C.3       1 UNK         0.0000 
     25 C25       -15.0017  -27.3550  -28.3866 C.3       1 UNK         0.0000 
     26 H26       -14.1111  -12.7839  -28.2306 H         1 UNK         0.0000 
     27 H27       -16.4256  -13.1525  -24.6535 H         1 UNK         0.0000 
     28 H28       -16.6444  -17.8520  -24.1113 H         1 UNK         0.0000 
     29 H29       -14.4912  -19.2630  -27.8667 H         1 UNK         0.0000 
     30 H30       -14.2683  -21.6534  -28.0631 H         1 UNK         0.0000 
     31 H31       -15.7622  -22.1415  -24.0621 H         1 UNK         0.0000 
     32 H32       -16.0195  -19.7338  -23.8570 H         1 UNK         0.0000 
     33 H33       -16.1744  -23.5056  -27.9908 H         1 UNK         0.0000 
     34 H34       -17.0548  -23.6031  -26.5107 H         1 UNK         0.0000 
     35 H35       -16.0869  -25.9943  -26.1808 H         1 UNK         0.0000 
     36 H36       -17.0436  -25.8381  -27.6479 H         1 UNK         0.0000 
     37 H37       -13.6062  -26.2295  -26.4479 H         1 UNK         0.0000 
     38 H38       -12.9176  -25.7930  -27.9867 H         1 UNK         0.0000 
     39 H39       -13.3563  -23.4082  -27.6679 H         1 UNK         0.0000 
     40 H40       -12.8301  -23.8764  -26.0908 H         1 UNK         0.0000 
     41 H41       -14.1546  -27.5535  -29.0464 H         1 UNK         0.0000 
     42 H42       -15.9427  -27.5530  -28.9013 H         1 UNK         0.0000 
     43 H43       -14.9324  -27.9489  -27.4754 H         1 UNK         0.0000 
     44 H44       -14.9940  -25.2862  -28.8479 H         1 UNK         0.0000 
     45 H45       -13.9911  -15.2646  -28.4414 H         1 UNK         0.0000 
@<TRIPOS>BOND
     1    1    2 ar   
     2    1    3 ar   
     3    1   45 1    
     4    2    4 ar   
     5    2    5 ar   
     6    3    6 ar   
     7    3   26 1    
     8    4    7 ar   
     9    4    8 ar   
    10    5   11 ar   
    11    6    7 ar   
    12    6   18 1    
    13    7   27 1    
    14    8    9 ar   
    15    8   10 2    
    16    9   11 ar   
    17    9   28 1    
    18   11   12 1    
    19   12   13 ar   
    20   12   17 ar   
    21   13   14 ar   
    22   13   29 1    
    23   14   15 ar   
    24   14   30 1    
    25   15   16 ar   
    26   15   19 1    
    27   16   17 ar   
    28   16   31 1    
    29   17   32 1    
    30   19   20 1    
    31   19   24 1    
    32   20   21 1    
    33   20   33 1    
    34   20   34 1    
    35   21   22 1    
    36   21   35 1    
    37   21   36 1    
    38   22   23 1    
    39   22   25 1    
    40   22   44 1    
    41   23   24 1    
    42   23   37 1    
    43   23   38 1    
    44   24   39 1    
    45   24   40 1    
    46   25   41 1    
    47   25   42 1    
    48   25   43 1    
@<TRIPOS>SUBSTRUCTURE
     1 UNK         1 GROUP             0       ****    0 ROOT    
