@<TRIPOS>MOLECULE
5i
40   42    1
SMALL
USER_CHARGES


@<TRIPOS>ATOM
      1 C1        -14.6297  -14.6110  -27.5812 C.ar      1 UNK         0.0000 
      2 C2        -15.1557  -15.4829  -26.6107 C.ar      1 UNK         0.0000 
      3 C3        -14.7061  -13.2297  -27.3681 C.ar      1 UNK         0.0000 
      4 C4        -15.8175  -14.9591  -25.4923 C.ar      1 UNK         0.0000 
      5 N5        -14.9969  -16.8771  -26.7477 N.2       1 UNK         0.0000 
      6 C6        -15.3270  -12.7227  -26.2281 C.ar      1 UNK         0.0000 
      7 C7        -15.9055  -13.5829  -25.2945 C.ar      1 UNK         0.0000 
      8 C8        -16.4244  -15.9205  -24.4984 C.ar      1 UNK         0.0000 
      9 N9        -16.0725  -17.2059  -24.7576 N.pl3     1 UNK         0.0000 
     10 O10       -17.1821  -15.6197  -23.5774 O.2       1 UNK         0.0000 
     11 C11       -15.4152  -17.7178  -25.8578 C.ar      1 UNK         0.0000 
     12 C12       -15.2565  -19.1843  -25.9941 C.ar      1 UNK         0.0000 
     13 C13       -14.6319  -19.7039  -27.1360 C.ar      1 UNK         0.0000 
     14 C14       -14.4496  -21.0707  -27.2868 C.ar      1 UNK         0.0000 
     15 C15       -14.8843  -21.9604  -26.3031 C.ar      1 UNK         0.0000 
     16 C16       -15.5283  -21.4500  -25.1676 C.ar      1 UNK         0.0000 
     17 C17       -15.7167  -20.0783  -25.0163 C.ar      1 UNK         0.0000 
     18 C18       -14.5831  -23.4642  -26.4242 C.3       1 UNK         0.0000 
     19 O19       -14.2264  -23.8803  -27.7268 O.3       1 UNK         0.0000 
     20 C20       -15.8049  -24.3384  -26.1355 C.3       1 UNK         0.0000 
     21 C21       -13.4007  -23.8019  -25.5129 C.3       1 UNK         0.0000 
     22 C22       -13.9366  -15.1262  -28.8376 C.3       1 UNK         0.0000 
     23 H23       -14.2766  -12.5394  -28.0816 H         1 UNK         0.0000 
     24 H24       -15.3596  -11.6517  -26.0808 H         1 UNK         0.0000 
     25 H25       -16.4005  -13.1831  -24.4207 H         1 UNK         0.0000 
     26 H26       -16.5043  -17.8684  -24.1280 H         1 UNK         0.0000 
     27 H27       -14.2723  -19.0519  -27.9195 H         1 UNK         0.0000 
     28 H28       -13.9353  -21.4333  -28.1648 H         1 UNK         0.0000 
     29 H29       -15.8641  -22.1087  -24.3790 H         1 UNK         0.0000 
     30 H30       -16.2078  -19.7294  -24.1199 H         1 UNK         0.0000 
     31 H31       -14.0472  -24.8289  -27.7070 H         1 UNK         0.0000 
     32 H32       -16.6360  -24.0017  -26.7470 H         1 UNK         0.0000 
     33 H33       -16.0765  -24.2907  -25.0828 H         1 UNK         0.0000 
     34 H34       -15.6404  -25.3866  -26.3851 H         1 UNK         0.0000 
     35 H35       -12.5084  -23.2486  -25.8057 H         1 UNK         0.0000 
     36 H36       -13.1740  -24.8577  -25.5627 H         1 UNK         0.0000 
     37 H37       -13.6102  -23.5638  -24.4695 H         1 UNK         0.0000 
     38 H38       -13.7369  -14.3270  -29.5522 H         1 UNK         0.0000 
     39 H39       -14.5474  -15.8740  -29.3431 H         1 UNK         0.0000 
     40 H40       -12.9894  -15.5908  -28.5755 H         1 UNK         0.0000 
@<TRIPOS>BOND
     1    1    2 ar   
     2    1    3 ar   
     3    1   22 1    
     4    2    4 ar   
     5    2    5 ar   
     6    3    6 ar   
     7    3   23 1    
     8    4    7 ar   
     9    4    8 ar   
    10    5   11 ar   
    11    6    7 ar   
    12    6   24 1    
    13    7   25 1    
    14    8    9 ar   
    15    8   10 2    
    16    9   11 ar   
    17    9   26 1    
    18   11   12 1    
    19   12   13 ar   
    20   12   17 ar   
    21   13   14 ar   
    22   13   27 1    
    23   14   15 ar   
    24   14   28 1    
    25   15   16 ar   
    26   15   18 1    
    27   16   17 ar   
    28   16   29 1    
    29   17   30 1    
    30   18   19 1    
    31   18   20 1    
    32   18   21 1    
    33   19   31 1    
    34   20   32 1    
    35   20   33 1    
    36   20   34 1    
    37   21   35 1    
    38   21   36 1    
    39   21   37 1    
    40   22   38 1    
    41   22   39 1    
    42   22   40 1    
@<TRIPOS>SUBSTRUCTURE
     1 UNK         1 GROUP             0       ****    0 ROOT    
