@<TRIPOS>MOLECULE
5j
37   39    1
SMALL
USER_CHARGES


@<TRIPOS>ATOM
      1 C1        -14.7191  -14.7437  -27.6392 C.ar      1 UNK         0.0000 
      2 C2        -15.2100  -15.5576  -26.6217 C.ar      1 UNK         0.0000 
      3 C3        -14.8546  -13.3638  -27.5278 C.ar      1 UNK         0.0000 
      4 C4        -15.8634  -15.0119  -25.5100 C.ar      1 UNK         0.0000 
      5 N5        -15.0155  -16.9311  -26.7330 N.2       1 UNK         0.0000 
      6 C6        -15.4818  -12.8157  -26.4108 C.ar      1 UNK         0.0000 
      7 C7        -15.9953  -13.6326  -25.3960 C.ar      1 UNK         0.0000 
      8 C8        -16.4010  -15.9560  -24.4529 C.ar      1 UNK         0.0000 
      9 N9        -16.1237  -17.2489  -24.7503 N.pl3     1 UNK         0.0000 
     10 O10       -17.0404  -15.6548  -23.4436 O.2       1 UNK         0.0000 
     11 C11       -15.4465  -17.7571  -25.8425 C.ar      1 UNK         0.0000 
     12 C12       -15.2799  -19.2057  -25.9856 C.ar      1 UNK         0.0000 
     13 C13       -15.7256  -20.0944  -24.9990 C.ar      1 UNK         0.0000 
     14 C14       -15.5412  -21.4568  -25.1662 C.ar      1 UNK         0.0000 
     15 C15       -14.9164  -21.9424  -26.3174 C.ar      1 UNK         0.0000 
     16 C16       -14.4855  -21.0603  -27.3040 C.ar      1 UNK         0.0000 
     17 C17       -14.6633  -19.7033  -27.1404 C.ar      1 UNK         0.0000 
     18 C18       -14.5856  -23.4201  -26.4266 C.3       1 UNK         0.0000 
     19 O19       -14.2271  -23.8386  -27.7106 O.3       1 UNK         0.0000 
     20 F20       -15.5915  -11.4816  -26.3335 F         1 UNK         0.0000 
     21 F21       -16.6030  -13.1004  -24.3145 F         1 UNK         0.0000 
     22 C22       -15.7860  -24.3161  -26.1231 C.3       1 UNK         0.0000 
     23 C23       -13.3500  -23.6601  -25.5696 C.3       1 UNK         0.0000 
     24 H24       -14.2230  -15.1759  -28.4962 H         1 UNK         0.0000 
     25 H25       -14.4673  -12.7104  -28.2984 H         1 UNK         0.0000 
     26 H26       -16.5489  -17.9042  -24.1082 H         1 UNK         0.0000 
     27 H27       -16.1937  -19.7543  -24.0872 H         1 UNK         0.0000 
     28 H28       -15.8509  -22.1245  -24.3761 H         1 UNK         0.0000 
     29 H29       -13.9755  -21.4159  -28.1877 H         1 UNK         0.0000 
     30 H30       -14.3101  -19.0466  -27.9244 H         1 UNK         0.0000 
     31 H31       -14.0222  -24.7810  -27.6785 H         1 UNK         0.0000 
     32 H32       -16.6618  -23.9901  -26.6844 H         1 UNK         0.0000 
     33 H33       -16.0289  -24.3088  -25.0631 H         1 UNK         0.0000 
     34 H34       -15.6110  -25.3634  -26.3774 H         1 UNK         0.0000 
     35 H35       -12.5475  -22.9733  -25.8340 H         1 UNK         0.0000 
     36 H36       -12.9786  -24.6668  -25.7243 H         1 UNK         0.0000 
     37 H37       -13.5559  -23.5311  -24.5063 H         1 UNK         0.0000 
@<TRIPOS>BOND
     1    1    2 ar   
     2    1    3 ar   
     3    1   24 1    
     4    2    4 ar   
     5    2    5 ar   
     6    3    6 ar   
     7    3   25 1    
     8    4    7 ar   
     9    4    8 ar   
    10    5   11 ar   
    11    6    7 ar   
    12    6   20 1    
    13    7   21 1    
    14    8    9 ar   
    15    8   10 2    
    16    9   11 ar   
    17    9   26 1    
    18   11   12 1    
    19   12   13 ar   
    20   12   17 ar   
    21   13   14 ar   
    22   13   27 1    
    23   14   15 ar   
    24   14   28 1    
    25   15   16 ar   
    26   15   18 1    
    27   16   17 ar   
    28   16   29 1    
    29   17   30 1    
    30   18   19 1    
    31   18   22 1    
    32   18   23 1    
    33   19   31 1    
    34   22   32 1    
    35   22   33 1    
    36   22   34 1    
    37   23   35 1    
    38   23   36 1    
    39   23   37 1    
@<TRIPOS>SUBSTRUCTURE
     1 UNK         1 GROUP             0       ****    0 ROOT    
