@<TRIPOS>MOLECULE
5a
37   39    1
SMALL
USER_CHARGES


@<TRIPOS>ATOM
      1 C1        -14.4887  -14.6549  -27.5068 C.ar      1 UNK         0.0000 
      2 C2        -15.0784  -15.5105  -26.5765 C.ar      1 UNK         0.0000 
      3 C3        -14.5574  -13.2734  -27.3136 C.ar      1 UNK         0.0000 
      4 C4        -15.7939  -14.9851  -25.4970 C.ar      1 UNK         0.0000 
      5 N5        -14.9153  -16.8955  -26.7252 N.2       1 UNK         0.0000 
      6 C6        -15.2379  -12.7551  -26.2102 C.ar      1 UNK         0.0000 
      7 C7        -15.8736  -13.6081  -25.3035 C.ar      1 UNK         0.0000 
      8 C8        -16.4670  -15.9501  -24.5521 C.ar      1 UNK         0.0000 
      9 N9        -16.1428  -17.2389  -24.8228 N.pl3     1 UNK         0.0000 
     10 O10       -17.2507  -15.6565  -23.6551 O.2       1 UNK         0.0000 
     11 C11       -15.4124  -17.7404  -25.8797 C.ar      1 UNK         0.0000 
     12 C12       -15.2750  -19.2019  -26.0235 C.ar      1 UNK         0.0000 
     13 C13       -15.8060  -20.0944  -25.0806 C.ar      1 UNK         0.0000 
     14 C14       -15.6365  -21.4652  -25.2376 C.ar      1 UNK         0.0000 
     15 C15       -14.9291  -21.9656  -26.3345 C.ar      1 UNK         0.0000 
     16 C16       -14.4216  -21.0786  -27.2845 C.ar      1 UNK         0.0000 
     17 C17       -14.5948  -19.7141  -27.1334 C.ar      1 UNK         0.0000 
     18 C18       -14.5885  -23.4545  -26.4120 C.3       1 UNK         0.0000 
     19 O19       -14.2373  -23.8906  -27.6995 O.3       1 UNK         0.0000 
     20 C20       -15.7670  -24.3817  -26.0807 C.3       1 UNK         0.0000 
     21 C21       -13.3520  -23.6762  -25.5380 C.3       1 UNK         0.0000 
     22 H22       -13.9461  -15.0592  -28.3490 H         1 UNK         0.0000 
     23 H23       -14.0765  -12.6015  -28.0118 H         1 UNK         0.0000 
     24 H24       -15.2675  -11.6846  -26.0655 H         1 UNK         0.0000 
     25 H25       -16.4083  -13.2023  -24.4560 H         1 UNK         0.0000 
     26 H26       -16.6142  -17.9038  -24.2244 H         1 UNK         0.0000 
     27 H27       -16.3283  -19.7466  -24.2019 H         1 UNK         0.0000 
     28 H28       -16.0140  -22.1325  -24.4762 H         1 UNK         0.0000 
     29 H29       -13.8515  -21.4355  -28.1296 H         1 UNK         0.0000 
     30 H30       -14.1785  -19.0600  -27.8872 H         1 UNK         0.0000 
     31 H31       -14.0218  -24.8268  -27.6517 H         1 UNK         0.0000 
     32 H32       -16.6776  -24.0445  -26.5749 H         1 UNK         0.0000 
     33 H33       -15.9457  -24.4280  -25.0079 H         1 UNK         0.0000 
     34 H34       -15.5953  -25.4165  -26.3853 H         1 UNK         0.0000 
     35 H35       -12.5514  -22.9776  -25.7877 H         1 UNK         0.0000 
     36 H36       -12.9573  -24.6793  -25.6884 H         1 UNK         0.0000 
     37 H37       -13.5749  -23.5582  -24.4761 H         1 UNK         0.0000 
@<TRIPOS>BOND
     1    1    2 ar   
     2    1    3 ar   
     3    1   22 1    
     4    2    4 ar   
     5    2    5 ar   
     6    3    6 ar   
     7    3   23 1    
     8    4    7 ar   
     9    4    8 ar   
    10    5   11 ar   
    11    6    7 ar   
    12    6   24 1    
    13    7   25 1    
    14    8    9 ar   
    15    8   10 2    
    16    9   11 ar   
    17    9   26 1    
    18   11   12 1    
    19   12   13 ar   
    20   12   17 ar   
    21   13   14 ar   
    22   13   27 1    
    23   14   15 ar   
    24   14   28 1    
    25   15   16 ar   
    26   15   18 1    
    27   16   17 ar   
    28   16   29 1    
    29   17   30 1    
    30   18   19 1    
    31   18   20 1    
    32   18   21 1    
    33   19   31 1    
    34   20   32 1    
    35   20   33 1    
    36   20   34 1    
    37   21   35 1    
    38   21   36 1    
    39   21   37 1    
@<TRIPOS>SUBSTRUCTURE
     1 UNK         1 GROUP             0       ****    0 ROOT    
