@<TRIPOS>MOLECULE
5d
37   39    1
SMALL
USER_CHARGES


@<TRIPOS>ATOM
      1 C1        -14.3086  -14.7921  -27.4784 C.ar      1 UNK         0.0000 
      2 C2        -15.0167  -15.5896  -26.5804 C.ar      1 UNK         0.0000 
      3 C3        -14.4209  -13.4086  -27.3834 C.ar      1 UNK         0.0000 
      4 C4        -15.8598  -15.0204  -25.6172 C.ar      1 UNK         0.0000 
      5 N5        -14.8572  -16.9685  -26.6643 N.2       1 UNK         0.0000 
      6 C6        -15.2467  -12.8486  -26.4112 C.ar      1 UNK         0.0000 
      7 C7        -15.9778  -13.6371  -25.5261 C.ar      1 UNK         0.0000 
      8 F8        -15.3497  -11.5222  -26.3368 F         1 UNK         0.0000 
      9 C9        -16.6344  -15.9439  -24.7010 C.ar      1 UNK         0.0000 
     10 N10       -16.3378  -17.2491  -24.9375 N.pl3     1 UNK         0.0000 
     11 O11       -17.4603  -15.6053  -23.8520 O.2       1 UNK         0.0000 
     12 C12       -15.4812  -17.7825  -25.8835 C.ar      1 UNK         0.0000 
     13 C13       -15.3281  -19.2368  -26.0128 C.ar      1 UNK         0.0000 
     14 C14       -15.7173  -20.1149  -24.9948 C.ar      1 UNK         0.0000 
     15 C15       -15.5045  -21.4792  -25.1435 C.ar      1 UNK         0.0000 
     16 C16       -14.9173  -21.9782  -26.3122 C.ar      1 UNK         0.0000 
     17 C17       -14.5597  -21.1078  -27.3352 C.ar      1 UNK         0.0000 
     18 C18       -14.7654  -19.7512  -27.1884 C.ar      1 UNK         0.0000 
     19 C19       -14.5723  -23.4575  -26.4180 C.3       1 UNK         0.0000 
     20 O20       -14.2296  -23.8957  -27.7059 O.3       1 UNK         0.0000 
     21 C21       -15.7738  -24.3383  -26.1013 C.3       1 UNK         0.0000 
     22 C22       -13.3357  -23.7020  -25.5598 C.3       1 UNK         0.0000 
     23 H23       -13.6666  -15.2372  -28.2250 H         1 UNK         0.0000 
     24 H24       -13.8693  -12.7659  -28.0555 H         1 UNK         0.0000 
     25 H25       -16.6179  -13.1711  -24.7897 H         1 UNK         0.0000 
     26 H26       -16.8986  -17.8932  -24.3961 H         1 UNK         0.0000 
     27 H27       -16.1594  -19.7615  -24.0734 H         1 UNK         0.0000 
     28 H28       -15.7659  -22.1386  -24.3295 H         1 UNK         0.0000 
     29 H29       -14.0863  -21.4707  -28.2353 H         1 UNK         0.0000 
     30 H30       -14.4611  -19.1052  -28.0006 H         1 UNK         0.0000 
     31 H31       -14.0254  -24.8372  -27.6632 H         1 UNK         0.0000 
     32 H32       -16.6686  -23.9680  -26.6026 H         1 UNK         0.0000 
     33 H33       -15.9590  -24.3559  -25.0291 H         1 UNK         0.0000 
     34 H34       -15.6385  -25.3819  -26.3933 H         1 UNK         0.0000 
     35 H35       -12.5229  -23.0398  -25.8496 H         1 UNK         0.0000 
     36 H36       -12.9848  -24.7235  -25.6730 H         1 UNK         0.0000 
     37 H37       -13.5341  -23.5351  -24.4994 H         1 UNK         0.0000 
@<TRIPOS>BOND
     1    1    2 ar   
     2    1    3 ar   
     3    1   23 1    
     4    2    4 ar   
     5    2    5 ar   
     6    3    6 ar   
     7    3   24 1    
     8    4    7 ar   
     9    4    9 ar   
    10    5   12 ar   
    11    6    7 ar   
    12    6    8 1    
    13    7   25 1    
    14    9   10 ar   
    15    9   11 2    
    16   10   12 ar   
    17   10   26 1    
    18   12   13 1    
    19   13   14 ar   
    20   13   18 ar   
    21   14   15 ar   
    22   14   27 1    
    23   15   16 ar   
    24   15   28 1    
    25   16   17 ar   
    26   16   19 1    
    27   17   18 ar   
    28   17   29 1    
    29   18   30 1    
    30   19   20 1    
    31   19   21 1    
    32   19   22 1    
    33   20   31 1    
    34   21   32 1    
    35   21   33 1    
    36   21   34 1    
    37   22   35 1    
    38   22   36 1    
    39   22   37 1    
@<TRIPOS>SUBSTRUCTURE
     1 UNK         1 GROUP             0       ****    0 ROOT    
