@<TRIPOS>MOLECULE
5e
37   39    1
SMALL
USER_CHARGES


@<TRIPOS>ATOM
      1 C1        -14.6145  -14.8753  -27.6783 C.ar      1 UNK         0.0000 
      2 C2        -15.1464  -15.6452  -26.6477 C.ar      1 UNK         0.0000 
      3 C3        -14.7773  -13.4982  -27.6334 C.ar      1 UNK         0.0000 
      4 C4        -15.8626  -15.0639  -25.5930 C.ar      1 UNK         0.0000 
      5 N5        -14.9335  -17.0116  -26.6934 N.2       1 UNK         0.0000 
      6 C6        -15.4592  -12.9286  -26.5614 C.ar      1 UNK         0.0000 
      7 C7        -16.0212  -13.6877  -25.5413 C.ar      1 UNK         0.0000 
      8 C8        -16.4561  -15.9663  -24.5344 C.ar      1 UNK         0.0000 
      9 N9        -16.1772  -17.2727  -24.7852 N.pl3     1 UNK         0.0000 
     10 O10       -17.1375  -15.6099  -23.5713 O.2       1 UNK         0.0000 
     11 C11       -15.4463  -17.8122  -25.8274 C.ar      1 UNK         0.0000 
     12 C12       -15.3013  -19.2577  -25.9685 C.ar      1 UNK         0.0000 
     13 C13       -15.7883  -20.1437  -25.0032 C.ar      1 UNK         0.0000 
     14 C14       -15.5853  -21.5050  -25.1666 C.ar      1 UNK         0.0000 
     15 C15       -14.9212  -21.9889  -26.3002 C.ar      1 UNK         0.0000 
     16 C16       -14.4497  -21.1036  -27.2603 C.ar      1 UNK         0.0000 
     17 C17       -14.6471  -19.7514  -27.1044 C.ar      1 UNK         0.0000 
     18 C18       -14.5675  -23.4595  -26.4211 C.3       1 UNK         0.0000 
     19 O19       -14.2543  -23.8948  -27.7188 O.3       1 UNK         0.0000 
     20 Cl20      -15.5911  -11.2537  -26.4871 Cl        1 UNK         0.0000 
     21 C21       -15.7371  -24.3734  -26.1449 C.3       1 UNK         0.0000 
     22 C22       -13.3528  -23.6876  -25.5352 C.3       1 UNK         0.0000 
     23 H23       -14.0725  -15.3349  -28.4916 H         1 UNK         0.0000 
     24 H24       -14.3582  -12.8718  -28.4085 H         1 UNK         0.0000 
     25 H25       -16.5533  -13.2093  -24.7301 H         1 UNK         0.0000 
     26 H26       -16.6582  -17.9076  -24.1598 H         1 UNK         0.0000 
     27 H27       -16.2939  -19.7994  -24.1117 H         1 UNK         0.0000 
     28 H28       -15.9101  -22.1690  -24.3811 H         1 UNK         0.0000 
     29 H29       -13.8986  -21.4549  -28.1189 H         1 UNK         0.0000 
     30 H30       -14.2620  -19.0974  -27.8744 H         1 UNK         0.0000 
     31 H31       -14.0506  -24.8357  -27.6678 H         1 UNK         0.0000 
     32 H32       -16.5721  -24.0859  -26.7829 H         1 UNK         0.0000 
     33 H33       -16.0738  -24.2984  -25.1148 H         1 UNK         0.0000 
     34 H34       -15.5257  -25.4267  -26.3342 H         1 UNK         0.0000 
     35 H35       -12.5483  -22.9937  -25.7771 H         1 UNK         0.0000 
     36 H36       -12.9750  -24.6916  -25.6788 H         1 UNK         0.0000 
     37 H37       -13.5852  -23.5615  -24.4766 H         1 UNK         0.0000 
@<TRIPOS>BOND
     1    1    2 ar   
     2    1    3 ar   
     3    1   23 1    
     4    2    4 ar   
     5    2    5 ar   
     6    3    6 ar   
     7    3   24 1    
     8    4    7 ar   
     9    4    8 ar   
    10    5   11 ar   
    11    6    7 ar   
    12    6   20 1    
    13    7   25 1    
    14    8    9 ar   
    15    8   10 2    
    16    9   11 ar   
    17    9   26 1    
    18   11   12 1    
    19   12   13 ar   
    20   12   17 ar   
    21   13   14 ar   
    22   13   27 1    
    23   14   15 ar   
    24   14   28 1    
    25   15   16 ar   
    26   15   18 1    
    27   16   17 ar   
    28   16   29 1    
    29   17   30 1    
    30   18   19 1    
    31   18   21 1    
    32   18   22 1    
    33   19   31 1    
    34   21   32 1    
    35   21   33 1    
    36   21   34 1    
    37   22   35 1    
    38   22   36 1    
    39   22   37 1    
@<TRIPOS>SUBSTRUCTURE
     1 UNK         1 GROUP             0       ****    0 ROOT    
