@<TRIPOS>MOLECULE
CAT-17e
46   49    1
SMALL
USER_CHARGES


@<TRIPOS>ATOM
      1 C1         14.8618    4.8350    1.1620 C.3       1 UNK         0.0000 
      2 O2         15.5063    3.6190    0.8241 O.3       1 UNK         0.0000 
      3 C3         15.5034    3.2547   -0.5041 C.ar      1 UNK         0.0000 
      4 C4         15.3203    4.1381   -1.5911 C.ar      1 UNK         0.0000 
      5 N5         15.3573    3.7398   -2.8754 N.ar      1 UNK         0.0000 
      6 C6         15.5484    2.4300   -3.1296 C.ar      1 UNK         0.0000 
      7 C7         15.7091    1.4388   -2.1356 C.ar      1 UNK         0.0000 
      8 C8         15.8420   -0.0010   -2.4606 C.ar      1 UNK         0.0000 
      9 C9         16.3311   -0.4075   -3.7129 C.ar      1 UNK         0.0000 
     10 C10        16.3915   -1.7640   -4.0583 C.ar      1 UNK         0.0000 
     11 C11        15.9457   -2.7515   -3.1643 C.ar      1 UNK         0.0000 
     12 C12        15.4719   -2.3986   -1.8776 C.ar      1 UNK         0.0000 
     13 C13        14.9084   -3.4068   -0.8336 C.3       1 UNK         0.0000 
     14 C14        15.1744   -4.9292   -0.9309 C.3       1 UNK         0.0000 
     15 C15        14.8727   -5.7780   -2.1409 C.3       1 UNK         0.0000 
     16 C16        16.2960   -5.6354   -1.6617 C.3       1 UNK         0.0000 
     17 N17        15.3119   -3.0245    0.5181 N.pl3     1 UNK         0.0000 
     18 C18        14.2748   -2.7106    1.2950 C.cat     1 UNK         0.0000 
     19 N19        14.4147   -2.3941    2.5875 N.pl3     1 UNK         0.0000 
     20 N20        13.1175   -2.7746    0.6184 N.am      1 UNK         0.0000 
     21 C21        11.7851   -2.4926    1.1586 C.3       1 UNK         0.0000 
     22 C22        13.3894   -3.1875   -0.7204 C.2       1 UNK         0.0000 
     23 O23        12.5284   -3.3363   -1.5934 O.2       1 UNK         0.0000 
     24 C24        15.4440   -1.0125   -1.5544 C.ar      1 UNK         0.0000 
     25 C25        15.7028    1.8991   -0.8055 C.ar      1 UNK         0.0000 
     26 H26        14.8380    4.9423    2.2474 H         1 UNK         0.0000 
     27 H27        15.3759    5.6992    0.7519 H         1 UNK         0.0000 
     28 H28        13.8375    4.8355    0.7946 H         1 UNK         0.0000 
     29 H29        15.1541    5.1939   -1.4430 H         1 UNK         0.0000 
     30 H30        15.5345    2.1696   -4.1770 H         1 UNK         0.0000 
     31 H31        16.6513    0.3205   -4.4416 H         1 UNK         0.0000 
     32 H32        16.7660   -2.0344   -5.0341 H         1 UNK         0.0000 
     33 H33        15.9804   -3.7597   -3.5293 H         1 UNK         0.0000 
     34 H34        14.9009   -5.4265   -0.0010 H         1 UNK         0.0000 
     35 H35        14.3799   -6.7349   -1.9832 H         1 UNK         0.0000 
     36 H36        14.5834   -5.2655   -3.0454 H         1 UNK         0.0000 
     37 H37        16.9751   -5.0800   -2.2915 H         1 UNK         0.0000 
     38 H38        16.7462   -6.4903   -1.1620 H         1 UNK         0.0000 
     39 H39        16.2886   -2.9965    0.8161 H         1 UNK         0.0000 
     40 H40        13.6579   -2.0901    3.1972 H         1 UNK         0.0000 
     41 H41        11.0202   -2.4653    0.3819 H         1 UNK         0.0000 
     42 H42        11.5052   -3.2432    1.8970 H         1 UNK         0.0000 
     43 H43        11.8047   -1.5231    1.6422 H         1 UNK         0.0000 
     44 H44        15.0485   -0.7087   -0.5980 H         1 UNK         0.0000 
     45 H45        15.8443    1.2081    0.0055 H         1 UNK         0.0000 
     46 H46        15.3520   -2.3780    2.9947 H         1 UNK         0.0000 
@<TRIPOS>BOND
     1    1    2 1    
     2    1   26 1    
     3    1   27 1    
     4    1   28 1    
     5    2    3 1    
     6    3    4 ar   
     7    3   25 ar   
     8    4    5 ar   
     9    4   29 1    
    10    5    6 ar   
    11    6    7 ar   
    12    6   30 1    
    13    7    8 1    
    14    7   25 ar   
    15    8    9 ar   
    16    8   24 ar   
    17    9   10 ar   
    18    9   31 1    
    19   10   11 ar   
    20   10   32 1    
    21   11   12 ar   
    22   11   33 1    
    23   12   13 1    
    24   12   24 ar   
    25   13   14 1    
    26   13   17 1    
    27   13   22 1    
    28   14   15 1    
    29   14   16 1    
    30   14   34 1    
    31   15   16 1    
    32   15   35 1    
    33   15   36 1    
    34   16   37 1    
    35   16   38 1    
    36   17   18 ar   
    37   17   39 1    
    38   18   19 ar   
    39   18   20 1    
    40   19   40 1    
    41   19   46 1    
    42   20   21 1    
    43   20   22 am   BACKBONE|DICT|INTERRES
    44   21   41 1    
    45   21   42 1    
    46   21   43 1    
    47   22   23 2    
    48   24   44 1    
    49   25   45 1    
@<TRIPOS>SUBSTRUCTURE
     1 UNK         1 GROUP             0       ****    0 ROOT    
