@<TRIPOS>MOLECULE
CAT-17c
44   47    1
SMALL
USER_CHARGES


@<TRIPOS>ATOM
      1 C1         11.7853   -2.3455    1.0634 C.3       1 UNK         0.0000 
      2 N2         13.1441   -2.6062    0.5704 N.am      1 UNK         0.0000 
      3 C3         14.2744   -2.5302    1.2878 C.cat     1 UNK         0.0000 
      4 N4         14.3686   -2.2901    2.6004 N.pl3     1 UNK         0.0000 
      5 N5         15.3478   -2.7494    0.5312 N.pl3     1 UNK         0.0000 
      6 C6         15.0177   -3.0661   -0.8502 C.3       1 UNK         0.0000 
      7 C7         15.5551   -1.9961   -1.8186 C.ar      1 UNK         0.0000 
      8 C8         16.2098   -2.3561   -3.0209 C.ar      1 UNK         0.0000 
      9 C9         16.6298   -1.3669   -3.9225 C.ar      1 UNK         0.0000 
     10 C10        16.3789   -0.0114   -3.6497 C.ar      1 UNK         0.0000 
     11 C11        15.7538    0.3922   -2.4512 C.ar      1 UNK         0.0000 
     12 C12        15.4596    1.8218   -2.1925 C.ar      1 UNK         0.0000 
     13 C13        15.1111    2.6867   -3.2564 C.ar      1 UNK         0.0000 
     14 C14        14.7531    4.0293   -3.0229 C.ar      1 UNK         0.0000 
     15 C15        14.7533    4.5399   -1.7148 C.ar      1 UNK         0.0000 
     16 C16        15.1249    3.7078   -0.6437 C.ar      1 UNK         0.0000 
     17 C17        15.1349    4.2481    0.7044 C.1       1 UNK         0.0000 
     18 N18        15.1438    4.6818    1.7758 N.1       1 UNK         0.0000 
     19 C19        15.4757    2.3610   -0.8842 C.ar      1 UNK         0.0000 
     20 C20        15.3690   -0.6167   -1.5375 C.ar      1 UNK         0.0000 
     21 C21        15.5917   -4.4671   -1.1260 C.3       1 UNK         0.0000 
     22 C22        14.9497   -5.7532   -0.6412 C.3       1 UNK         0.0000 
     23 C23        15.0113   -5.4514   -2.1181 C.3       1 UNK         0.0000 
     24 C24        13.4793   -2.9638   -0.7730 C.2       1 UNK         0.0000 
     25 O25        12.6533   -3.1192   -1.6780 O.2       1 UNK         0.0000 
     26 H26        11.6561   -2.7472    2.0690 H         1 UNK         0.0000 
     27 H27        11.6120   -1.2696    1.0974 H         1 UNK         0.0000 
     28 H28        11.0290   -2.7929    0.4170 H         1 UNK         0.0000 
     29 H29        13.5877   -2.0398    3.2034 H         1 UNK         0.0000 
     30 H30        16.3113   -2.7407    0.8724 H         1 UNK         0.0000 
     31 H31        16.3937   -3.3859   -3.2910 H         1 UNK         0.0000 
     32 H32        17.1250   -1.6496   -4.8417 H         1 UNK         0.0000 
     33 H33        16.6709    0.7238   -4.3837 H         1 UNK         0.0000 
     34 H34        15.0741    2.3090   -4.2679 H         1 UNK         0.0000 
     35 H35        14.4546    4.6661   -3.8431 H         1 UNK         0.0000 
     36 H36        14.4627    5.5666   -1.5361 H         1 UNK         0.0000 
     37 H37        15.7579    1.7345   -0.0524 H         1 UNK         0.0000 
     38 H38        14.8680   -0.3210   -0.6281 H         1 UNK         0.0000 
     39 H39        16.6771   -4.4708   -1.0657 H         1 UNK         0.0000 
     40 H40        15.6117   -6.5318   -0.2669 H         1 UNK         0.0000 
     41 H41        13.9721   -5.7129   -0.1653 H         1 UNK         0.0000 
     42 H42        14.0736   -5.2076   -2.6034 H         1 UNK         0.0000 
     43 H43        15.7105   -6.0225   -2.7268 H         1 UNK         0.0000 
     44 H44        15.2904   -2.2843    3.0382 H         1 UNK         0.0000 
@<TRIPOS>BOND
     1    1    2 1    
     2    1   26 1    
     3    1   27 1    
     4    1   28 1    
     5    2    3 1    
     6    2   24 am   BACKBONE|DICT|INTERRES
     7    3    4 ar   
     8    3    5 ar   
     9    4   29 1    
    10    4   44 1    
    11    5    6 1    
    12    5   30 1    
    13    6    7 1    
    14    6   21 1    
    15    6   24 1    
    16    7    8 ar   
    17    7   20 ar   
    18    8    9 ar   
    19    8   31 1    
    20    9   10 ar   
    21    9   32 1    
    22   10   11 ar   
    23   10   33 1    
    24   11   12 1    
    25   11   20 ar   
    26   12   13 ar   
    27   12   19 ar   
    28   13   14 ar   
    29   13   34 1    
    30   14   15 ar   
    31   14   35 1    
    32   15   16 ar   
    33   15   36 1    
    34   16   17 1    
    35   16   19 ar   
    36   17   18 3    
    37   19   37 1    
    38   20   38 1    
    39   21   22 1    
    40   21   23 1    
    41   21   39 1    
    42   22   23 1    
    43   22   40 1    
    44   22   41 1    
    45   23   42 1    
    46   23   43 1    
    47   24   25 2    
@<TRIPOS>SUBSTRUCTURE
     1 UNK         1 GROUP             0       ****    0 ROOT    
