@<TRIPOS>MOLECULE
CAT-13k
45   48    1
SMALL
USER_CHARGES


@<TRIPOS>ATOM
      1 C1         11.7400   -2.2126    1.2313 C.3       1 UNK         0.0000 
      2 N2         13.0684   -2.5561    0.7089 N.am      1 UNK         0.0000 
      3 C3         14.2256   -2.5677    1.3847 C.cat     1 UNK         0.0000 
      4 N4         14.3832   -2.3337    2.6889 N.pl3     1 UNK         0.0000 
      5 N5         15.2563   -2.8608    0.5934 N.pl3     1 UNK         0.0000 
      6 C6         14.8533   -3.1586   -0.7802 C.3       1 UNK         0.0000 
      7 C7         15.1438   -4.6467   -1.0923 C.ar      1 UNK         0.0000 
      8 C8         14.2637   -5.4798   -1.8166 C.ar      1 UNK         0.0000 
      9 C9         14.5645   -6.8432   -1.9699 C.ar      1 UNK         0.0000 
     10 C10        15.7571   -7.3361   -1.4317 C.ar      1 UNK         0.0000 
     11 N11        16.6213   -6.5577   -0.7672 N.ar      1 UNK         0.0000 
     12 C12        16.3169   -5.2546   -0.6052 C.ar      1 UNK         0.0000 
     13 C13        15.4647   -2.1399   -1.7601 C.ar      1 UNK         0.0000 
     14 C14        16.0954   -2.5444   -2.9592 C.ar      1 UNK         0.0000 
     15 C15        16.5717   -1.5778   -3.8628 C.ar      1 UNK         0.0000 
     16 C16        16.4066   -0.2072   -3.5903 C.ar      1 UNK         0.0000 
     17 C17        15.8150    0.2377   -2.3895 C.ar      1 UNK         0.0000 
     18 C18        15.6040    1.6830   -2.1188 C.ar      1 UNK         0.0000 
     19 C19        15.3466    2.5922   -3.1729 C.ar      1 UNK         0.0000 
     20 C20        15.0379    3.9438   -2.9130 C.ar      1 UNK         0.0000 
     21 C21        15.0066    4.4209   -1.5932 C.ar      1 UNK         0.0000 
     22 C22        15.3052    3.5500   -0.5350 C.ar      1 UNK         0.0000 
     23 Cl23       15.2910    4.1515    1.0816 Cl        1 UNK         0.0000 
     24 C24        15.6001    2.1968   -0.7994 C.ar      1 UNK         0.0000 
     25 C25        15.3711   -0.7498   -1.4798 C.ar      1 UNK         0.0000 
     26 C26        13.3361   -2.8874   -0.6508 C.2       1 UNK         0.0000 
     27 O27        12.4745   -2.9293   -1.5356 O.2       1 UNK         0.0000 
     28 H28        11.5520   -1.1511    1.0727 H         1 UNK         0.0000 
     29 H29        10.9569   -2.7751    0.7224 H         1 UNK         0.0000 
     30 H30        11.6699   -2.4254    2.2974 H         1 UNK         0.0000 
     31 H31        15.3226   -2.3540    3.0886 H         1 UNK         0.0000 
     32 H32        16.2325   -2.8545    0.8935 H         1 UNK         0.0000 
     33 H33        13.3408   -5.1092   -2.2189 H         1 UNK         0.0000 
     34 H34        13.8937   -7.5087   -2.4902 H         1 UNK         0.0000 
     35 H35        16.0228   -8.3769   -1.5218 H         1 UNK         0.0000 
     36 H36        17.0106   -4.6876   -0.0139 H         1 UNK         0.0000 
     37 H37        16.2119   -3.5881   -3.2166 H         1 UNK         0.0000 
     38 H38        17.0459   -1.8830   -4.7859 H         1 UNK         0.0000 
     39 H39        16.7356    0.5091   -4.3263 H         1 UNK         0.0000 
     40 H40        15.3303    2.2450   -4.1961 H         1 UNK         0.0000 
     41 H41        14.7905    4.6180   -3.7185 H         1 UNK         0.0000 
     42 H42        14.7494    5.4510   -1.3903 H         1 UNK         0.0000 
     43 H43        15.8201    1.5472    0.0303 H         1 UNK         0.0000 
     44 H44        14.8910   -0.4239   -0.5697 H         1 UNK         0.0000 
     45 H45        13.6384   -2.0384    3.3180 H         1 UNK         0.0000 
@<TRIPOS>BOND
     1    1    2 1    
     2    1   28 1    
     3    1   29 1    
     4    1   30 1    
     5    2    3 1    
     6    2   26 am   BACKBONE|DICT|INTERRES
     7    3    4 ar   
     8    3    5 ar   
     9    4   31 1    
    10    4   45 1    
    11    5    6 1    
    12    5   32 1    
    13    6    7 1    
    14    6   13 1    
    15    6   26 1    
    16    7    8 ar   
    17    7   12 ar   
    18    8    9 ar   
    19    8   33 1    
    20    9   10 ar   
    21    9   34 1    
    22   10   11 ar   
    23   10   35 1    
    24   11   12 ar   
    25   12   36 1    
    26   13   14 ar   
    27   13   25 ar   
    28   14   15 ar   
    29   14   37 1    
    30   15   16 ar   
    31   15   38 1    
    32   16   17 ar   
    33   16   39 1    
    34   17   18 1    
    35   17   25 ar   
    36   18   19 ar   
    37   18   24 ar   
    38   19   20 ar   
    39   19   40 1    
    40   20   21 ar   
    41   20   41 1    
    42   21   22 ar   
    43   21   42 1    
    44   22   23 1    
    45   22   24 ar   
    46   24   43 1    
    47   25   44 1    
    48   26   27 2    
@<TRIPOS>SUBSTRUCTURE
     1 UNK         1 GROUP             0       ****    0 ROOT    
