@<TRIPOS>MOLECULE
CAT-17b
47   50    1
SMALL
USER_CHARGES


@<TRIPOS>ATOM
      1 C1         14.8884    4.7758    1.2264 C.3       1 UNK         0.0000 
      2 O2         15.4957    3.5598    0.8392 O.3       1 UNK         0.0000 
      3 C3         15.4238    3.2070   -0.4882 C.ar      1 UNK         0.0000 
      4 C4         15.1334    4.1078   -1.5370 C.ar      1 UNK         0.0000 
      5 C5         15.1104    3.6468   -2.8636 C.ar      1 UNK         0.0000 
      6 C6         15.3679    2.2912   -3.1537 C.ar      1 UNK         0.0000 
      7 C7         15.6266    1.3615   -2.1168 C.ar      1 UNK         0.0000 
      8 C8         15.8148   -0.0835   -2.3955 C.ar      1 UNK         0.0000 
      9 C9         16.3949   -0.4894   -3.6079 C.ar      1 UNK         0.0000 
     10 C10        16.5054   -1.8465   -3.9388 C.ar      1 UNK         0.0000 
     11 C11        16.0401   -2.8367   -3.0545 C.ar      1 UNK         0.0000 
     12 C12        15.4687   -2.4844   -1.8058 C.ar      1 UNK         0.0000 
     13 C13        14.8765   -3.4953   -0.7767 C.3       1 UNK         0.0000 
     14 C14        15.0969   -5.0253   -0.8826 C.3       1 UNK         0.0000 
     15 C15        14.8831   -5.8408   -2.1342 C.3       1 UNK         0.0000 
     16 C16        16.2579   -5.7566   -1.5174 C.3       1 UNK         0.0000 
     17 N17        15.2831   -3.1271    0.5768 N.pl3     1 UNK         0.0000 
     18 C18        14.2456   -2.7938    1.3470 C.cat     1 UNK         0.0000 
     19 N19        14.3920   -2.4607    2.6335 N.pl3     1 UNK         0.0000 
     20 N20        13.0879   -2.8500    0.6736 N.am      1 UNK         0.0000 
     21 C21        11.7608   -2.5496    1.2227 C.3       1 UNK         0.0000 
     22 C22        13.3577   -3.2550   -0.6672 C.2       1 UNK         0.0000 
     23 O23        12.4975   -3.3906   -1.5423 O.2       1 UNK         0.0000 
     24 C24        15.3879   -1.0935   -1.4999 C.ar      1 UNK         0.0000 
     25 C25        15.6597    1.8544   -0.7971 C.ar      1 UNK         0.0000 
     26 H26        14.9248    4.8682    2.3123 H         1 UNK         0.0000 
     27 H27        15.3955    5.6327    0.7976 H         1 UNK         0.0000 
     28 H28        13.8484    4.8040    0.9119 H         1 UNK         0.0000 
     29 H29        14.9345    5.1528   -1.3550 H         1 UNK         0.0000 
     30 H30        14.8807    4.3379   -3.6572 H         1 UNK         0.0000 
     31 H31        15.3228    1.9594   -4.1830 H         1 UNK         0.0000 
     32 H32        16.7454    0.2546   -4.3045 H         1 UNK         0.0000 
     33 H33        16.9433   -2.1069   -4.8912 H         1 UNK         0.0000 
     34 H34        16.1427   -3.8499   -3.3919 H         1 UNK         0.0000 
     35 H35        14.7320   -5.5257    0.0163 H         1 UNK         0.0000 
     36 H36        14.3435   -6.7811   -2.0394 H         1 UNK         0.0000 
     37 H37        14.6921   -5.3031   -3.0518 H         1 UNK         0.0000 
     38 H38        17.0103   -5.2043   -2.0606 H         1 UNK         0.0000 
     39 H39        16.6257   -6.6394   -0.9948 H         1 UNK         0.0000 
     40 H40        16.2616   -3.0818    0.8652 H         1 UNK         0.0000 
     41 H41        13.6434   -2.1215    3.2365 H         1 UNK         0.0000 
     42 H42        11.8062   -1.5722    1.6900 H         1 UNK         0.0000 
     43 H43        11.4779   -3.2829    1.9791 H         1 UNK         0.0000 
     44 H44        10.9878   -2.5218    0.4540 H         1 UNK         0.0000 
     45 H45        14.9339   -0.7828   -0.5721 H         1 UNK         0.0000 
     46 H46        15.8580    1.1777    0.0148 H         1 UNK         0.0000 
     47 H47        15.3342   -2.4335    3.0256 H         1 UNK         0.0000 
@<TRIPOS>BOND
     1    1    2 1    
     2    1   26 1    
     3    1   27 1    
     4    1   28 1    
     5    2    3 1    
     6    3    4 ar   
     7    3   25 ar   
     8    4    5 ar   
     9    4   29 1    
    10    5    6 ar   
    11    5   30 1    
    12    6    7 ar   
    13    6   31 1    
    14    7    8 1    
    15    7   25 ar   
    16    8    9 ar   
    17    8   24 ar   
    18    9   10 ar   
    19    9   32 1    
    20   10   11 ar   
    21   10   33 1    
    22   11   12 ar   
    23   11   34 1    
    24   12   13 1    
    25   12   24 ar   
    26   13   14 1    
    27   13   17 1    
    28   13   22 1    
    29   14   15 1    
    30   14   16 1    
    31   14   35 1    
    32   15   16 1    
    33   15   36 1    
    34   15   37 1    
    35   16   38 1    
    36   16   39 1    
    37   17   18 ar   
    38   17   40 1    
    39   18   19 ar   
    40   18   20 1    
    41   19   41 1    
    42   19   47 1    
    43   20   21 1    
    44   20   22 am   BACKBONE|DICT|INTERRES
    45   21   42 1    
    46   21   43 1    
    47   21   44 1    
    48   22   23 2    
    49   24   45 1    
    50   25   46 1    
@<TRIPOS>SUBSTRUCTURE
     1 UNK         1 GROUP             0       ****    0 ROOT    
