@<TRIPOS>MOLECULE
CAT-4n
46   49    1
SMALL
USER_CHARGES


@<TRIPOS>ATOM
      1 C1         11.6953   -2.1436    1.3064 C.3       1 UNK         0.0000 
      2 N2         13.0025   -2.3990    0.6999 N.am      1 UNK         0.0000 
      3 C3         14.1917   -2.4863    1.3202 C.cat     1 UNK         0.0000 
      4 N4         14.4011   -2.3559    2.6348 N.pl3     1 UNK         0.0000 
      5 N5         15.1812   -2.7373    0.4600 N.pl3     1 UNK         0.0000 
      6 C6         14.6758   -2.9528   -0.8941 C.3       1 UNK         0.0000 
      7 C7         14.8451   -4.4626   -1.1964 C.ar      1 UNK         0.0000 
      8 C8         16.0866   -4.9310   -1.6683 C.ar      1 UNK         0.0000 
      9 C9         16.3077   -6.2911   -1.9317 C.ar      1 UNK         0.0000 
     10 C10        15.3010   -7.2305   -1.6613 C.ar      1 UNK         0.0000 
     11 C11        14.0785   -6.8053   -1.1182 C.ar      1 UNK         0.0000 
     12 C12        13.8521   -5.4364   -0.8930 C.ar      1 UNK         0.0000 
     13 C13        15.2714   -1.9272   -1.8915 C.ar      1 UNK         0.0000 
     14 C14        15.7220   -2.2895   -3.1819 C.ar      1 UNK         0.0000 
     15 C15        16.2633   -1.3220   -4.0414 C.ar      1 UNK         0.0000 
     16 C16        16.2448    0.0372   -3.6846 C.ar      1 UNK         0.0000 
     17 C17        15.7216    0.4597   -2.4444 C.ar      1 UNK         0.0000 
     18 C18        15.5143    1.8981   -2.1461 C.ar      1 UNK         0.0000 
     19 C19        15.2248    2.8239   -3.1772 C.ar      1 UNK         0.0000 
     20 N20        14.9106    4.1194   -2.9755 N.ar      1 UNK         0.0000 
     21 C21        14.8694    4.5737   -1.7085 C.ar      1 UNK         0.0000 
     22 C22        15.1718    3.7657   -0.6025 C.ar      1 UNK         0.0000 
     23 C23        15.1261    4.3202    0.7378 C.1       1 UNK         0.0000 
     24 N24        15.0921    4.7635    1.8043 N.1       1 UNK         0.0000 
     25 C25        15.5071    2.4172   -0.8297 C.ar      1 UNK         0.0000 
     26 C26        15.3076   -0.5489   -1.5396 C.ar      1 UNK         0.0000 
     27 C27        13.1927   -2.6018   -0.6954 C.2       1 UNK         0.0000 
     28 O28        12.2932   -2.5477   -1.5429 O.2       1 UNK         0.0000 
     29 H29        11.3749   -1.1305    1.0630 H         1 UNK         0.0000 
     30 H30        10.9510   -2.8405    0.9208 H         1 UNK         0.0000 
     31 H31        11.7360   -2.2652    2.3861 H         1 UNK         0.0000 
     32 H32        15.3521   -2.4194    2.9993 H         1 UNK         0.0000 
     33 H33        16.1636   -2.8377    0.7119 H         1 UNK         0.0000 
     34 H34        16.8740   -4.2216   -1.8420 H         1 UNK         0.0000 
     35 H35        17.2613   -6.6012   -2.3267 H         1 UNK         0.0000 
     36 H36        15.4672   -8.2799   -1.8381 H         1 UNK         0.0000 
     37 H37        13.3211   -7.5360   -0.8632 H         1 UNK         0.0000 
     38 H38        12.9015   -5.1786   -0.4575 H         1 UNK         0.0000 
     39 H39        15.6765   -3.3054   -3.5439 H         1 UNK         0.0000 
     40 H40        16.6581   -1.6222   -5.0016 H         1 UNK         0.0000 
     41 H41        16.6034    0.7570   -4.4053 H         1 UNK         0.0000 
     42 H42        15.1797    2.5037   -4.2055 H         1 UNK         0.0000 
     43 H43        14.5905    5.6109   -1.5790 H         1 UNK         0.0000 
     44 H44        15.7415    1.7791    0.0069 H         1 UNK         0.0000 
     45 H45        14.9206   -0.2492   -0.5793 H         1 UNK         0.0000 
     46 H46        13.6860   -2.0579    3.2949 H         1 UNK         0.0000 
@<TRIPOS>BOND
     1    1    2 1    
     2    1   29 1    
     3    1   30 1    
     4    1   31 1    
     5    2    3 1    
     6    2   27 am   BACKBONE|DICT|INTERRES
     7    3    4 ar   
     8    3    5 ar   
     9    4   32 1    
    10    4   46 1    
    11    5    6 1    
    12    5   33 1    
    13    6    7 1    
    14    6   13 1    
    15    6   27 1    
    16    7    8 ar   
    17    7   12 ar   
    18    8    9 ar   
    19    8   34 1    
    20    9   10 ar   
    21    9   35 1    
    22   10   11 ar   
    23   10   36 1    
    24   11   12 ar   
    25   11   37 1    
    26   12   38 1    
    27   13   14 ar   
    28   13   26 ar   
    29   14   15 ar   
    30   14   39 1    
    31   15   16 ar   
    32   15   40 1    
    33   16   17 ar   
    34   16   41 1    
    35   17   18 1    
    36   17   26 ar   
    37   18   19 ar   
    38   18   25 ar   
    39   19   20 ar   
    40   19   42 1    
    41   20   21 ar   
    42   21   22 ar   
    43   21   43 1    
    44   22   23 1    
    45   22   25 ar   
    46   23   24 3    
    47   25   44 1    
    48   26   45 1    
    49   27   28 2    
@<TRIPOS>SUBSTRUCTURE
     1 UNK         1 GROUP             0       ****    0 ROOT    
