@<TRIPOS>MOLECULE
CAT-13g
52   55    1
SMALL
USER_CHARGES


@<TRIPOS>ATOM
      1 C1         11.6820   -2.1707    1.3298 C.3       1 UNK         0.0000 
      2 N2         12.9759   -2.4302    0.6898 N.am      1 UNK         0.0000 
      3 C3         14.1857   -2.5033    1.2745 C.cat     1 UNK         0.0000 
      4 N4         14.4361   -2.3451    2.5798 N.pl3     1 UNK         0.0000 
      5 N5         15.1499   -2.7842    0.3899 N.pl3     1 UNK         0.0000 
      6 C6         14.6008   -2.9822   -0.9565 C.3       1 UNK         0.0000 
      7 C7         15.1276   -1.9196   -1.9457 C.ar      1 UNK         0.0000 
      8 C8         15.4911   -2.2559   -3.2691 C.ar      1 UNK         0.0000 
      9 C9         16.0026   -1.2814   -4.1316 C.ar      1 UNK         0.0000 
     10 C10        16.0562    0.0656   -3.7342 C.ar      1 UNK         0.0000 
     11 C11        15.6099    0.4645   -2.4549 C.ar      1 UNK         0.0000 
     12 C12        15.4769    1.9021   -2.1038 C.ar      1 UNK         0.0000 
     13 C13        15.1741    2.8578   -3.1038 C.ar      1 UNK         0.0000 
     14 C14        14.9081    4.2029   -2.7794 C.ar      1 UNK         0.0000 
     15 C15        14.9471    4.6239   -1.4406 C.ar      1 UNK         0.0000 
     16 C16        15.2835    3.7048   -0.4343 C.ar      1 UNK         0.0000 
     17 Cl17       15.3415    4.2337    1.2070 Cl        1 UNK         0.0000 
     18 C18        15.5532    2.3613   -0.7659 C.ar      1 UNK         0.0000 
     19 C19        15.2059   -0.5552   -1.5583 C.ar      1 UNK         0.0000 
     20 C20        14.7887   -4.4804   -1.3903 C.3       1 UNK         0.0000 
     21 C21        16.2630   -4.8725   -1.6061 C.3       1 UNK         0.0000 
     22 C22        16.3888   -6.2770   -2.2013 C.3       1 UNK         0.0000 
     23 C23        15.8131   -7.2996   -1.2236 C.3       1 UNK         0.0000 
     24 C24        14.3456   -6.9746   -0.9188 C.3       1 UNK         0.0000 
     25 C25        14.1673   -5.5282   -0.4194 C.3       1 UNK         0.0000 
     26 C26        13.1177   -2.6879   -0.7028 C.2       1 UNK         0.0000 
     27 O27        12.1860   -2.7189   -1.5139 O.2       1 UNK         0.0000 
     28 H28        11.3564   -1.1585    1.0940 H         1 UNK         0.0000 
     29 H29        10.9228   -2.8632    0.9660 H         1 UNK         0.0000 
     30 H30        11.7457   -2.2845    2.4102 H         1 UNK         0.0000 
     31 H31        13.7416   -2.0408    3.2608 H         1 UNK         0.0000 
     32 H32        16.1420   -2.8464    0.6123 H         1 UNK         0.0000 
     33 H33        15.4232   -3.2618   -3.6536 H         1 UNK         0.0000 
     34 H34        16.3339   -1.5765   -5.1141 H         1 UNK         0.0000 
     35 H35        16.4155    0.7934   -4.4473 H         1 UNK         0.0000 
     36 H36        15.0829    2.5513   -4.1351 H         1 UNK         0.0000 
     37 H37        14.6436    4.9090   -3.5548 H         1 UNK         0.0000 
     38 H38        14.7210    5.6482   -1.1823 H         1 UNK         0.0000 
     39 H39        15.7987    1.6737    0.0263 H         1 UNK         0.0000 
     40 H40        14.8764   -0.2706   -0.5717 H         1 UNK         0.0000 
     41 H41        14.2658   -4.6096   -2.3387 H         1 UNK         0.0000 
     42 H42        16.7767   -4.1756   -2.2561 H         1 UNK         0.0000 
     43 H43        16.7869   -4.8372   -0.6499 H         1 UNK         0.0000 
     44 H44        17.4336   -6.5015   -2.4013 H         1 UNK         0.0000 
     45 H45        15.8707   -6.3310   -3.1600 H         1 UNK         0.0000 
     46 H46        15.9010   -8.3040   -1.6298 H         1 UNK         0.0000 
     47 H47        16.4015   -7.2923   -0.3053 H         1 UNK         0.0000 
     48 H48        13.7480   -7.1276   -1.8192 H         1 UNK         0.0000 
     49 H49        13.9654   -7.6729   -0.1726 H         1 UNK         0.0000 
     50 H50        14.6309   -5.4382    0.5640 H         1 UNK         0.0000 
     51 H51        13.1008   -5.3581   -0.2716 H         1 UNK         0.0000 
     52 H52        15.3986   -2.4098    2.9173 H         1 UNK         0.0000 
@<TRIPOS>BOND
     1    1    2 1    
     2    1   28 1    
     3    1   29 1    
     4    1   30 1    
     5    2    3 1    
     6    2   26 am   BACKBONE|DICT|INTERRES
     7    3    4 ar   
     8    3    5 ar   
     9    4   31 1    
    10    4   52 1    
    11    5    6 1    
    12    5   32 1    
    13    6    7 1    
    14    6   20 1    
    15    6   26 1    
    16    7    8 ar   
    17    7   19 ar   
    18    8    9 ar   
    19    8   33 1    
    20    9   10 ar   
    21    9   34 1    
    22   10   11 ar   
    23   10   35 1    
    24   11   12 1    
    25   11   19 ar   
    26   12   13 ar   
    27   12   18 ar   
    28   13   14 ar   
    29   13   36 1    
    30   14   15 ar   
    31   14   37 1    
    32   15   16 ar   
    33   15   38 1    
    34   16   17 1    
    35   16   18 ar   
    36   18   39 1    
    37   19   40 1    
    38   20   21 1    
    39   20   25 1    
    40   20   41 1    
    41   21   22 1    
    42   21   42 1    
    43   21   43 1    
    44   22   23 1    
    45   22   44 1    
    46   22   45 1    
    47   23   24 1    
    48   23   46 1    
    49   23   47 1    
    50   24   25 1    
    51   24   48 1    
    52   24   49 1    
    53   25   50 1    
    54   25   51 1    
    55   26   27 2    
@<TRIPOS>SUBSTRUCTURE
     1 UNK         1 GROUP             0       ****    0 ROOT    
