@<TRIPOS>MOLECULE
CAT-13o
42   45    1
SMALL
USER_CHARGES


@<TRIPOS>ATOM
      1 C1         11.7744   -2.0618    1.1343 C.3       1 UNK         0.0000 
      2 N2         13.0790   -2.4524    0.5877 N.am      1 UNK         0.0000 
      3 C3         14.2431   -2.5421    1.2539 C.cat     1 UNK         0.0000 
      4 N4         14.4169   -2.3498    2.5687 N.pl3     1 UNK         0.0000 
      5 N5         15.2561   -2.8530    0.4409 N.pl3     1 UNK         0.0000 
      6 C6         14.8080   -3.0850   -0.9332 C.3       1 UNK         0.0000 
      7 C7         15.4265   -2.0582   -1.9126 C.ar      1 UNK         0.0000 
      8 C8         15.8985   -2.3994   -3.2015 C.ar      1 UNK         0.0000 
      9 C9         16.3932   -1.4095   -4.0612 C.ar      1 UNK         0.0000 
     10 C10        16.3356   -0.0554   -3.6934 C.ar      1 UNK         0.0000 
     11 C11        15.8305    0.3417   -2.4379 C.ar      1 UNK         0.0000 
     12 C12        15.6352    1.7780   -2.1098 C.ar      1 UNK         0.0000 
     13 C13        15.3646    2.7170   -3.1346 C.ar      1 UNK         0.0000 
     14 C14        15.0637    4.0615   -2.8394 C.ar      1 UNK         0.0000 
     15 C15        15.0416    4.5010   -1.5065 C.ar      1 UNK         0.0000 
     16 C16        15.3459    3.6006   -0.4746 C.ar      1 UNK         0.0000 
     17 Cl17       15.3403    4.1597    1.1570 Cl        1 UNK         0.0000 
     18 C18        15.6382    2.2541   -0.7761 C.ar      1 UNK         0.0000 
     19 C19        15.4351   -0.6823   -1.5449 C.ar      1 UNK         0.0000 
     20 C20        14.8980   -4.5908   -1.1993 C.2       1 UNK         0.0000 
     21 N21        14.0678   -5.4772   -0.6139 N.2       1 UNK         0.0000 
     22 C22        14.3911   -6.8147   -0.8480 C.2       1 UNK         0.0000 
     23 C23        15.5272   -6.9668   -1.5932 C.2       1 UNK         0.0000 
     24 S24        16.2112   -5.4292   -2.0461 S.3       1 UNK         0.0000 
     25 C25        13.3123   -2.7371   -0.7906 C.2       1 UNK         0.0000 
     26 O26        12.4481   -2.6727   -1.6750 O.2       1 UNK         0.0000 
     27 H27        10.9567   -2.5358    0.5853 H         1 UNK         0.0000 
     28 H28        11.6873   -2.3480    2.1847 H         1 UNK         0.0000 
     29 H29        11.6583   -0.9791    1.0515 H         1 UNK         0.0000 
     30 H30        15.3579   -2.4095    2.9620 H         1 UNK         0.0000 
     31 H31        16.2309   -2.9314    0.7292 H         1 UNK         0.0000 
     32 H32        15.8825   -3.4030   -3.5906 H         1 UNK         0.0000 
     33 H33        16.7794   -1.6903   -5.0303 H         1 UNK         0.0000 
     34 H34        16.6583    0.6820   -4.4118 H         1 UNK         0.0000 
     35 H35        15.3304    2.4001   -4.1665 H         1 UNK         0.0000 
     36 H36        14.8193    4.7549   -3.6303 H         1 UNK         0.0000 
     37 H37        14.7893    5.5257   -1.2732 H         1 UNK         0.0000 
     38 H38        15.8546    1.5828    0.0371 H         1 UNK         0.0000 
     39 H39        15.0403   -0.3905   -0.5831 H         1 UNK         0.0000 
     40 H40        13.7694   -7.5955   -0.4287 H         1 UNK         0.0000 
     41 H41        15.9903   -7.8907   -1.9004 H         1 UNK         0.0000 
     42 H42        13.6835   -2.0468    3.2074 H         1 UNK         0.0000 
@<TRIPOS>BOND
     1    1    2 1    
     2    1   27 1    
     3    1   28 1    
     4    1   29 1    
     5    2    3 1    
     6    2   25 am   BACKBONE|DICT|INTERRES
     7    3    4 ar   
     8    3    5 ar   
     9    4   30 1    
    10    4   42 1    
    11    5    6 1    
    12    5   31 1    
    13    6    7 1    
    14    6   20 1    
    15    6   25 1    
    16    7    8 ar   
    17    7   19 ar   
    18    8    9 ar   
    19    8   32 1    
    20    9   10 ar   
    21    9   33 1    
    22   10   11 ar   
    23   10   34 1    
    24   11   12 1    
    25   11   19 ar   
    26   12   13 ar   
    27   12   18 ar   
    28   13   14 ar   
    29   13   35 1    
    30   14   15 ar   
    31   14   36 1    
    32   15   16 ar   
    33   15   37 1    
    34   16   17 1    
    35   16   18 ar   
    36   18   38 1    
    37   19   39 1    
    38   20   21 2    
    39   20   24 1    
    40   21   22 1    
    41   22   23 2    
    42   22   40 1    
    43   23   24 1    
    44   23   41 1    
    45   25   26 2    
@<TRIPOS>SUBSTRUCTURE
     1 UNK         1 GROUP             0       ****    0 ROOT    
