@<TRIPOS>MOLECULE
CAT-4c
50   53    1
SMALL
USER_CHARGES


@<TRIPOS>ATOM
      1 C1         12.5711    5.3513   -2.7657 C.3       1 UNK         0.0000 
      2 O2         13.7081    5.1549   -1.9289 O.3       1 UNK         0.0000 
      3 C3         14.3525    3.9582   -2.1070 C.ar      1 UNK         0.0000 
      4 C4         14.8801    3.2992   -0.9813 C.ar      1 UNK         0.0000 
      5 C5         15.4000    1.9956   -1.1053 C.ar      1 UNK         0.0000 
      6 C6         15.4241    1.3431   -2.3579 C.ar      1 UNK         0.0000 
      7 C7         15.7606   -0.0825   -2.4958 C.ar      1 UNK         0.0000 
      8 C8         16.4104   -0.5580   -3.6479 C.ar      1 UNK         0.0000 
      9 C9         16.5936   -1.9307   -3.8581 C.ar      1 UNK         0.0000 
     10 C10        16.0899   -2.8628   -2.9346 C.ar      1 UNK         0.0000 
     11 C11        15.4302   -2.4158   -1.7641 C.ar      1 UNK         0.0000 
     12 C12        14.8180   -3.3955   -0.7510 C.3       1 UNK         0.0000 
     13 C13        15.1632   -4.8768   -1.0176 C.ar      1 UNK         0.0000 
     14 C14        14.3265   -5.7683   -1.7334 C.ar      1 UNK         0.0000 
     15 C15        14.7023   -7.1138   -1.9228 C.ar      1 UNK         0.0000 
     16 C16        15.9322   -7.5796   -1.4262 C.ar      1 UNK         0.0000 
     17 C17        16.7922   -6.7001   -0.7600 C.ar      1 UNK         0.0000 
     18 C18        16.3964   -5.3713   -0.5455 C.ar      1 UNK         0.0000 
     19 N19        15.2313   -3.0387    0.6068 N.pl3     1 UNK         0.0000 
     20 C20        14.2081   -2.6970    1.3866 C.cat     1 UNK         0.0000 
     21 N21        14.3761   -2.3746    2.6722 N.pl3     1 UNK         0.0000 
     22 N22        13.0452   -2.7268    0.7206 N.am      1 UNK         0.0000 
     23 C23        11.7303   -2.3304    1.2406 C.3       1 UNK         0.0000 
     24 C24        13.2977   -3.1408   -0.6221 C.2       1 UNK         0.0000 
     25 O25        12.4259   -3.2223   -1.4953 O.2       1 UNK         0.0000 
     26 C26        15.3168   -1.0203   -1.5415 C.ar      1 UNK         0.0000 
     27 C27        15.0015    2.0596   -3.4966 C.ar      1 UNK         0.0000 
     28 C28        14.4602    3.3469   -3.3731 C.ar      1 UNK         0.0000 
     29 H29        11.9724    6.1855   -2.4058 H         1 UNK         0.0000 
     30 H30        12.8593    5.5867   -3.7903 H         1 UNK         0.0000 
     31 H31        11.9234    4.4734   -2.7734 H         1 UNK         0.0000 
     32 H32        14.8193    3.7674   -0.0099 H         1 UNK         0.0000 
     33 H33        15.7378    1.4794   -0.2207 H         1 UNK         0.0000 
     34 H34        16.7419    0.1377   -4.4013 H         1 UNK         0.0000 
     35 H35        17.0959   -2.2498   -4.7563 H         1 UNK         0.0000 
     36 H36        16.2160   -3.9144   -3.1523 H         1 UNK         0.0000 
     37 H37        13.3830   -5.4459   -2.1401 H         1 UNK         0.0000 
     38 H38        14.0449   -7.7904   -2.4492 H         1 UNK         0.0000 
     39 H39        16.2289   -8.6066   -1.5336 H         1 UNK         0.0000 
     40 H40        17.7478   -7.0430   -0.3881 H         1 UNK         0.0000 
     41 H41        17.0549   -4.7250    0.0063 H         1 UNK         0.0000 
     42 H42        16.2103   -3.0095    0.8918 H         1 UNK         0.0000 
     43 H43        13.6321   -2.0604    3.2929 H         1 UNK         0.0000 
     44 H44        10.9201   -2.8078    0.6888 H         1 UNK         0.0000 
     45 H45        11.6300   -2.5995    2.2917 H         1 UNK         0.0000 
     46 H46        11.6158   -1.2514    1.1443 H         1 UNK         0.0000 
     47 H47        14.8061   -0.6509   -0.6635 H         1 UNK         0.0000 
     48 H48        15.0098    1.5949   -4.4724 H         1 UNK         0.0000 
     49 H49        14.0883    3.8355   -4.2589 H         1 UNK         0.0000 
     50 H50        15.3185   -2.3684    3.0651 H         1 UNK         0.0000 
@<TRIPOS>BOND
     1    1    2 1    
     2    1   29 1    
     3    1   30 1    
     4    1   31 1    
     5    2    3 1    
     6    3    4 ar   
     7    3   28 ar   
     8    4    5 ar   
     9    4   32 1    
    10    5    6 ar   
    11    5   33 1    
    12    6    7 1    
    13    6   27 ar   
    14    7    8 ar   
    15    7   26 ar   
    16    8    9 ar   
    17    8   34 1    
    18    9   10 ar   
    19    9   35 1    
    20   10   11 ar   
    21   10   36 1    
    22   11   12 1    
    23   11   26 ar   
    24   12   13 1    
    25   12   19 1    
    26   12   24 1    
    27   13   14 ar   
    28   13   18 ar   
    29   14   15 ar   
    30   14   37 1    
    31   15   16 ar   
    32   15   38 1    
    33   16   17 ar   
    34   16   39 1    
    35   17   18 ar   
    36   17   40 1    
    37   18   41 1    
    38   19   20 ar   
    39   19   42 1    
    40   20   21 ar   
    41   20   22 1    
    42   21   43 1    
    43   21   50 1    
    44   22   23 1    
    45   22   24 am   BACKBONE|DICT|INTERRES
    46   23   44 1    
    47   23   45 1    
    48   23   46 1    
    49   24   25 2    
    50   26   47 1    
    51   27   28 ar   
    52   27   48 1    
    53   28   49 1    
@<TRIPOS>SUBSTRUCTURE
     1 UNK         1 GROUP             0       ****    0 ROOT    
