@<TRIPOS>MOLECULE
CAT-4l
44   47    1
SMALL
USER_CHARGES


@<TRIPOS>ATOM
      1 C1         11.7113   -2.3112    1.2622 C.3       1 UNK         0.0000 
      2 N2         13.0352   -2.6402    0.7179 N.am      1 UNK         0.0000 
      3 C3         14.2035   -2.6174    1.3751 C.cat     1 UNK         0.0000 
      4 N4         14.3765   -2.3591    2.6742 N.pl3     1 UNK         0.0000 
      5 N5         15.2269   -2.8949    0.5700 N.pl3     1 UNK         0.0000 
      6 C6         14.8063   -3.2175   -0.7951 C.3       1 UNK         0.0000 
      7 C7         15.1524   -4.6977   -1.0845 C.ar      1 UNK         0.0000 
      8 C8         14.3046   -5.5761   -1.8014 C.ar      1 UNK         0.0000 
      9 C9         14.6497   -6.9306   -1.9839 C.ar      1 UNK         0.0000 
     10 C10        15.8625   -7.4264   -1.4792 C.ar      1 UNK         0.0000 
     11 C11        16.7308   -6.5656   -0.7973 C.ar      1 UNK         0.0000 
     12 C12        16.3649   -5.2251   -0.5912 C.ar      1 UNK         0.0000 
     13 C13        15.3844   -2.1979   -1.7957 C.ar      1 UNK         0.0000 
     14 C14        15.9241   -2.5916   -3.0422 C.ar      1 UNK         0.0000 
     15 C15        16.3874   -1.6183   -3.9470 C.ar      1 UNK         0.0000 
     16 C16        16.3038   -0.2493   -3.6280 C.ar      1 UNK         0.0000 
     17 C17        15.8001    0.1816   -2.3818 C.ar      1 UNK         0.0000 
     18 C18        15.7084    1.6222   -2.0291 C.ar      1 UNK         0.0000 
     19 C19        15.7056    2.0785   -0.6865 C.ar      1 UNK         0.0000 
     20 N20        15.5288    3.3733   -0.3397 N.ar      1 UNK         0.0000 
     21 C21        15.3497    4.2346   -1.3629 C.ar      1 UNK         0.0000 
     22 C22        15.3873    3.8092   -2.7078 C.ar      1 UNK         0.0000 
     23 N23        15.5688    2.5097   -3.0474 N.ar      1 UNK         0.0000 
     24 C24        15.3588   -0.8146   -1.4792 C.ar      1 UNK         0.0000 
     25 C25        13.2854   -2.9804   -0.6448 C.2       1 UNK         0.0000 
     26 O26        12.4099   -3.0279   -1.5170 O.2       1 UNK         0.0000 
     27 H27        10.9248   -2.8724    0.7569 H         1 UNK         0.0000 
     28 H28        11.6571   -2.5377    2.3265 H         1 UNK         0.0000 
     29 H29        11.5141   -1.2490    1.1211 H         1 UNK         0.0000 
     30 H30        15.3205   -2.3643    3.0635 H         1 UNK         0.0000 
     31 H31        16.2054   -2.8992    0.8580 H         1 UNK         0.0000 
     32 H32        13.3663   -5.2373   -2.2023 H         1 UNK         0.0000 
     33 H33        13.9797   -7.5967   -2.5060 H         1 UNK         0.0000 
     34 H34        16.1272   -8.4631   -1.5949 H         1 UNK         0.0000 
     35 H35        17.6704   -6.9318   -0.4070 H         1 UNK         0.0000 
     36 H36        17.0276   -4.6014   -0.0205 H         1 UNK         0.0000 
     37 H37        15.9843   -3.6329   -3.3297 H         1 UNK         0.0000 
     38 H38        16.7976   -1.9165   -4.9021 H         1 UNK         0.0000 
     39 H39        16.6290    0.4808   -4.3551 H         1 UNK         0.0000 
     40 H40        15.8527    1.3926    0.1280 H         1 UNK         0.0000 
     41 H41        15.1811    5.2706   -1.1089 H         1 UNK         0.0000 
     42 H42        15.2465    4.5234   -3.5029 H         1 UNK         0.0000 
     43 H43        14.9460   -0.5019   -0.5323 H         1 UNK         0.0000 
     44 H44        13.6343   -2.0707    3.3097 H         1 UNK         0.0000 
@<TRIPOS>BOND
     1    1    2 1    
     2    1   27 1    
     3    1   28 1    
     4    1   29 1    
     5    2    3 1    
     6    2   25 am   BACKBONE|DICT|INTERRES
     7    3    4 ar   
     8    3    5 ar   
     9    4   30 1    
    10    4   44 1    
    11    5    6 1    
    12    5   31 1    
    13    6    7 1    
    14    6   13 1    
    15    6   25 1    
    16    7    8 ar   
    17    7   12 ar   
    18    8    9 ar   
    19    8   32 1    
    20    9   10 ar   
    21    9   33 1    
    22   10   11 ar   
    23   10   34 1    
    24   11   12 ar   
    25   11   35 1    
    26   12   36 1    
    27   13   14 ar   
    28   13   24 ar   
    29   14   15 ar   
    30   14   37 1    
    31   15   16 ar   
    32   15   38 1    
    33   16   17 ar   
    34   16   39 1    
    35   17   18 1    
    36   17   24 ar   
    37   18   19 ar   
    38   18   23 ar   
    39   19   20 ar   
    40   19   40 1    
    41   20   21 ar   
    42   21   22 ar   
    43   21   41 1    
    44   22   23 ar   
    45   22   42 1    
    46   24   43 1    
    47   25   26 2    
@<TRIPOS>SUBSTRUCTURE
     1 UNK         1 GROUP             0       ****    0 ROOT    
