@<TRIPOS>MOLECULE
CAT-17i
45   48    1
SMALL
USER_CHARGES


@<TRIPOS>ATOM
      1 C1         15.2932    4.2915    1.0147 C.3       1 UNK         0.0000 
      2 C2         15.2616    3.7480   -0.3995 C.ar      1 UNK         0.0000 
      3 C3         14.9085    4.5739   -1.4751 C.ar      1 UNK         0.0000 
      4 N4         14.8944    4.1495   -2.7538 N.ar      1 UNK         0.0000 
      5 C5         15.2063    2.8612   -2.9971 C.ar      1 UNK         0.0000 
      6 C6         15.5301    1.9161   -2.0030 C.ar      1 UNK         0.0000 
      7 C7         15.7496    0.4844   -2.3447 C.ar      1 UNK         0.0000 
      8 C8         16.2883    0.1102   -3.5962 C.ar      1 UNK         0.0000 
      9 C9         16.4392   -1.2422   -3.9406 C.ar      1 UNK         0.0000 
     10 C10        15.9908   -2.2528   -3.0810 C.ar      1 UNK         0.0000 
     11 C11        15.4339   -1.9362   -1.8222 C.ar      1 UNK         0.0000 
     12 C12        14.8689   -2.9894   -0.8318 C.3       1 UNK         0.0000 
     13 C13        15.1312   -4.5068   -0.9958 C.3       1 UNK         0.0000 
     14 C14        14.8281   -5.2744   -2.2582 C.3       1 UNK         0.0000 
     15 C15        16.2398   -5.2146   -1.7420 C.3       1 UNK         0.0000 
     16 N16        15.2808   -2.6745    0.5323 N.pl3     1 UNK         0.0000 
     17 C17        14.2359   -2.5141    1.3440 C.cat     1 UNK         0.0000 
     18 N18        14.3825   -2.3702    2.6646 N.pl3     1 UNK         0.0000 
     19 N19        13.0741   -2.5549    0.6745 N.am      1 UNK         0.0000 
     20 C20        11.7278   -2.4944    1.2586 C.3       1 UNK         0.0000 
     21 C21        13.3510   -2.7948   -0.7027 C.2       1 UNK         0.0000 
     22 O22        12.4937   -2.8958   -1.5869 O.2       1 UNK         0.0000 
     23 C23        15.3607   -0.5585   -1.4665 C.ar      1 UNK         0.0000 
     24 C24        15.5842    2.4020   -0.6755 C.ar      1 UNK         0.0000 
     25 H25        14.4087    3.9655    1.5522 H         1 UNK         0.0000 
     26 H26        16.1711    3.9455    1.5624 H         1 UNK         0.0000 
     27 H27        15.3062    5.3818    1.0335 H         1 UNK         0.0000 
     28 H28        14.6629    5.6160   -1.3152 H         1 UNK         0.0000 
     29 H29        15.1107    2.5630   -4.0300 H         1 UNK         0.0000 
     30 H30        16.5894    0.8517   -4.3192 H         1 UNK         0.0000 
     31 H31        16.8753   -1.5226   -4.8866 H         1 UNK         0.0000 
     32 H32        16.0871   -3.2506   -3.4660 H         1 UNK         0.0000 
     33 H33        14.8189   -5.0590   -0.1094 H         1 UNK         0.0000 
     34 H34        14.2625   -6.1991   -2.1472 H         1 UNK         0.0000 
     35 H35        14.5937   -4.6809   -3.1257 H         1 UNK         0.0000 
     36 H36        16.9418   -4.6586   -2.3398 H         1 UNK         0.0000 
     37 H37        16.6559   -6.1052   -1.2662 H         1 UNK         0.0000 
     38 H38        16.2575   -2.7098    0.8299 H         1 UNK         0.0000 
     39 H39        13.6314   -2.1095    3.3027 H         1 UNK         0.0000 
     40 H40        11.0150   -2.0181    0.5837 H         1 UNK         0.0000 
     41 H41        11.3726   -3.5009    1.4847 H         1 UNK         0.0000 
     42 H42        11.7558   -1.9447    2.1954 H         1 UNK         0.0000 
     43 H43        14.9119   -0.3026   -0.5173 H         1 UNK         0.0000 
     44 H44        15.8494    1.7412    0.1319 H         1 UNK         0.0000 
     45 H45        15.3265   -2.3620    3.0533 H         1 UNK         0.0000 
@<TRIPOS>BOND
     1    1    2 1    
     2    1   25 1    
     3    1   26 1    
     4    1   27 1    
     5    2    3 ar   
     6    2   24 ar   
     7    3    4 ar   
     8    3   28 1    
     9    4    5 ar   
    10    5    6 ar   
    11    5   29 1    
    12    6    7 1    
    13    6   24 ar   
    14    7    8 ar   
    15    7   23 ar   
    16    8    9 ar   
    17    8   30 1    
    18    9   10 ar   
    19    9   31 1    
    20   10   11 ar   
    21   10   32 1    
    22   11   12 1    
    23   11   23 ar   
    24   12   13 1    
    25   12   16 1    
    26   12   21 1    
    27   13   14 1    
    28   13   15 1    
    29   13   33 1    
    30   14   15 1    
    31   14   34 1    
    32   14   35 1    
    33   15   36 1    
    34   15   37 1    
    35   16   17 ar   
    36   16   38 1    
    37   17   18 ar   
    38   17   19 1    
    39   18   39 1    
    40   18   45 1    
    41   19   20 1    
    42   19   21 am   BACKBONE|DICT|INTERRES
    43   20   40 1    
    44   20   41 1    
    45   20   42 1    
    46   21   22 2    
    47   23   43 1    
    48   24   44 1    
@<TRIPOS>SUBSTRUCTURE
     1 UNK         1 GROUP             0       ****    0 ROOT    
