@<TRIPOS>MOLECULE
CAT-17a
43   46    1
SMALL
USER_CHARGES


@<TRIPOS>ATOM
      1 C1         11.7268   -2.5836    1.3295 C.3       1 UNK         0.0000 
      2 N2         13.0531   -2.6452    0.7063 N.am      1 UNK         0.0000 
      3 C3         14.2316   -2.5932    1.3460 C.cat     1 UNK         0.0000 
      4 N4         14.4073   -2.4121    2.6584 N.pl3     1 UNK         0.0000 
      5 N5         15.2573   -2.7748    0.5129 N.pl3     1 UNK         0.0000 
      6 C6         14.8116   -3.0762   -0.8432 C.3       1 UNK         0.0000 
      7 C7         15.3587   -2.0157   -1.8435 C.ar      1 UNK         0.0000 
      8 C8         16.0195   -2.3189   -3.0601 C.ar      1 UNK         0.0000 
      9 C9         16.4383   -1.2952   -3.9239 C.ar      1 UNK         0.0000 
     10 C10        16.1807    0.0504   -3.6165 C.ar      1 UNK         0.0000 
     11 C11        15.5427    0.4050   -2.4118 C.ar      1 UNK         0.0000 
     12 C12        15.2156    1.8211   -2.1137 C.ar      1 UNK         0.0000 
     13 C13        15.3567    2.3665   -0.8156 C.ar      1 UNK         0.0000 
     14 C14        14.9849    3.7006   -0.5364 C.ar      1 UNK         0.0000 
     15 Cl15       15.1555    4.3443    1.0546 Cl        1 UNK         0.0000 
     16 C16        14.4606    4.5126   -1.5547 C.ar      1 UNK         0.0000 
     17 C17        14.3209    3.9933   -2.8516 C.ar      1 UNK         0.0000 
     18 Cl18       13.6519    4.9766   -4.0966 Cl        1 UNK         0.0000 
     19 C19        14.7046    2.6647   -3.1281 C.ar      1 UNK         0.0000 
     20 C20        15.1679   -0.6375   -1.5331 C.ar      1 UNK         0.0000 
     21 C21        15.0322   -4.5979   -1.0297 C.3       1 UNK         0.0000 
     22 C22        14.8677   -5.3412   -2.3307 C.3       1 UNK         0.0000 
     23 C23        16.2127   -5.2990   -1.6572 C.3       1 UNK         0.0000 
     24 C24        13.2933   -2.8878   -0.6768 C.2       1 UNK         0.0000 
     25 O25        12.4116   -2.9823   -1.5385 O.2       1 UNK         0.0000 
     26 H26        11.4700   -3.5572    1.7452 H         1 UNK         0.0000 
     27 H27        11.7369   -1.8709    2.1445 H         1 UNK         0.0000 
     28 H28        10.9529   -2.2895    0.6209 H         1 UNK         0.0000 
     29 H29        13.6644   -2.1505    3.3042 H         1 UNK         0.0000 
     30 H30        16.2403   -2.7836    0.7874 H         1 UNK         0.0000 
     31 H31        16.2291   -3.3147   -3.3988 H         1 UNK         0.0000 
     32 H32        16.9460   -1.5531   -4.8431 H         1 UNK         0.0000 
     33 H33        16.4785    0.8091   -4.3260 H         1 UNK         0.0000 
     34 H34        15.7506    1.7585   -0.0167 H         1 UNK         0.0000 
     35 H35        14.1590    5.5304   -1.3431 H         1 UNK         0.0000 
     36 H36        14.5644    2.2798   -4.1277 H         1 UNK         0.0000 
     37 H37        14.6627   -0.3618   -0.6207 H         1 UNK         0.0000 
     38 H38        14.6222   -5.1529   -0.1846 H         1 UNK         0.0000 
     39 H39        14.3021   -6.2723   -2.3064 H         1 UNK         0.0000 
     40 H40        14.7452   -4.7530   -3.2261 H         1 UNK         0.0000 
     41 H41        16.9717   -4.7217   -2.1490 H         1 UNK         0.0000 
     42 H42        16.5741   -6.2027   -1.1702 H         1 UNK         0.0000 
     43 H43        15.3568   -2.4023    3.0357 H         1 UNK         0.0000 
@<TRIPOS>BOND
     1    1    2 1    
     2    1   26 1    
     3    1   27 1    
     4    1   28 1    
     5    2    3 1    
     6    2   24 am   BACKBONE|DICT|INTERRES
     7    3    4 ar   
     8    3    5 ar   
     9    4   29 1    
    10    4   43 1    
    11    5    6 1    
    12    5   30 1    
    13    6    7 1    
    14    6   21 1    
    15    6   24 1    
    16    7    8 ar   
    17    7   20 ar   
    18    8    9 ar   
    19    8   31 1    
    20    9   10 ar   
    21    9   32 1    
    22   10   11 ar   
    23   10   33 1    
    24   11   12 1    
    25   11   20 ar   
    26   12   13 ar   
    27   12   19 ar   
    28   13   14 ar   
    29   13   34 1    
    30   14   15 1    
    31   14   16 ar   
    32   16   17 ar   
    33   16   35 1    
    34   17   18 1    
    35   17   19 ar   
    36   19   36 1    
    37   20   37 1    
    38   21   22 1    
    39   21   23 1    
    40   21   38 1    
    41   22   23 1    
    42   22   39 1    
    43   22   40 1    
    44   23   41 1    
    45   23   42 1    
    46   24   25 2    
@<TRIPOS>SUBSTRUCTURE
     1 UNK         1 GROUP             0       ****    0 ROOT    
