@<TRIPOS>MOLECULE
CAT-17h
42   45    1
SMALL
USER_CHARGES


@<TRIPOS>ATOM
      1 C1         11.7876   -2.3629    1.0753 C.3       1 UNK         0.0000 
      2 N2         13.1411   -2.6519    0.5831 N.am      1 UNK         0.0000 
      3 C3         14.2738   -2.5824    1.2973 C.cat     1 UNK         0.0000 
      4 N4         14.3737   -2.3175    2.6048 N.pl3     1 UNK         0.0000 
      5 N5         15.3423   -2.8322    0.5428 N.pl3     1 UNK         0.0000 
      6 C6         15.0054   -3.1469   -0.8380 C.3       1 UNK         0.0000 
      7 C7         15.5491   -2.0803   -1.8069 C.ar      1 UNK         0.0000 
      8 C8         16.1588   -2.4454   -3.0305 C.ar      1 UNK         0.0000 
      9 C9         16.5920   -1.4580   -3.9273 C.ar      1 UNK         0.0000 
     10 C10        16.4001   -0.0996   -3.6280 C.ar      1 UNK         0.0000 
     11 C11        15.8193    0.3104   -2.4088 C.ar      1 UNK         0.0000 
     12 C12        15.5975    1.7479   -2.1182 C.ar      1 UNK         0.0000 
     13 C13        15.3876    2.6890   -3.1521 C.ar      1 UNK         0.0000 
     14 N14        15.1194    3.9953   -2.9527 N.ar      1 UNK         0.0000 
     15 C15        15.0499    4.4405   -1.6849 C.ar      1 UNK         0.0000 
     16 C16        15.2748    3.6152   -0.5724 C.ar      1 UNK         0.0000 
     17 Cl17       15.1922    4.2577    1.0276 Cl        1 UNK         0.0000 
     18 C18        15.5592    2.2562   -0.8005 C.ar      1 UNK         0.0000 
     19 C19        15.4167   -0.6999   -1.5023 C.ar      1 UNK         0.0000 
     20 C20        15.5681   -4.5517   -1.1183 C.3       1 UNK         0.0000 
     21 C21        14.9253   -5.8313   -0.6183 C.3       1 UNK         0.0000 
     22 C22        14.9664   -5.5372   -2.0971 C.3       1 UNK         0.0000 
     23 C23        13.4684   -3.0281   -0.7573 C.2       1 UNK         0.0000 
     24 O24        12.6385   -3.1793   -1.6592 O.2       1 UNK         0.0000 
     25 H25        11.0228   -2.8008    0.4334 H         1 UNK         0.0000 
     26 H26        11.6523   -2.7549    2.0833 H         1 UNK         0.0000 
     27 H27        11.6336   -1.2845    1.1023 H         1 UNK         0.0000 
     28 H28        13.5957   -2.0540    3.2061 H         1 UNK         0.0000 
     29 H29        16.3077   -2.8168    0.8784 H         1 UNK         0.0000 
     30 H30        16.2986   -3.4771   -3.3189 H         1 UNK         0.0000 
     31 H31        17.0552   -1.7421   -4.8626 H         1 UNK         0.0000 
     32 H32        16.7063    0.6263   -4.3648 H         1 UNK         0.0000 
     33 H33        15.3927    2.3806   -4.1861 H         1 UNK         0.0000 
     34 H34        14.8134    5.4864   -1.5542 H         1 UNK         0.0000 
     35 H35        15.7498    1.6090    0.0382 H         1 UNK         0.0000 
     36 H36        14.9482   -0.4103   -0.5739 H         1 UNK         0.0000 
     37 H37        16.6547   -4.5613   -1.0761 H         1 UNK         0.0000 
     38 H38        15.5873   -6.6129   -0.2503 H         1 UNK         0.0000 
     39 H39        13.9555   -5.7814   -0.1275 H         1 UNK         0.0000 
     40 H40        14.0224   -5.2918   -2.5696 H         1 UNK         0.0000 
     41 H41        15.6527   -6.1160   -2.7131 H         1 UNK         0.0000 
     42 H42        15.2970   -2.3102    3.0396 H         1 UNK         0.0000 
@<TRIPOS>BOND
     1    1    2 1    
     2    1   25 1    
     3    1   26 1    
     4    1   27 1    
     5    2    3 1    
     6    2   23 am   BACKBONE|DICT|INTERRES
     7    3    4 ar   
     8    3    5 ar   
     9    4   28 1    
    10    4   42 1    
    11    5    6 1    
    12    5   29 1    
    13    6    7 1    
    14    6   20 1    
    15    6   23 1    
    16    7    8 ar   
    17    7   19 ar   
    18    8    9 ar   
    19    8   30 1    
    20    9   10 ar   
    21    9   31 1    
    22   10   11 ar   
    23   10   32 1    
    24   11   12 1    
    25   11   19 ar   
    26   12   13 ar   
    27   12   18 ar   
    28   13   14 ar   
    29   13   33 1    
    30   14   15 ar   
    31   15   16 ar   
    32   15   34 1    
    33   16   17 1    
    34   16   18 ar   
    35   18   35 1    
    36   19   36 1    
    37   20   21 1    
    38   20   22 1    
    39   20   37 1    
    40   21   22 1    
    41   21   38 1    
    42   21   39 1    
    43   22   40 1    
    44   22   41 1    
    45   23   24 2    
@<TRIPOS>SUBSTRUCTURE
     1 UNK         1 GROUP             0       ****    0 ROOT    
