@<TRIPOS>MOLECULE
CAT-4p
45   48    1
SMALL
USER_CHARGES


@<TRIPOS>ATOM
      1 C1         11.7149   -2.1704    1.1859 C.3       1 UNK         0.0000 
      2 N2         13.0472   -2.4713    0.6536 N.am      1 UNK         0.0000 
      3 C3         14.2073   -2.4898    1.3303 C.cat     1 UNK         0.0000 
      4 N4         14.3600   -2.2952    2.6436 N.pl3     1 UNK         0.0000 
      5 N5         15.2417   -2.7547    0.5321 N.pl3     1 UNK         0.0000 
      6 C6         14.8171   -3.0611   -0.8292 C.3       1 UNK         0.0000 
      7 C7         15.0768   -4.5789   -1.0201 C.ar      1 UNK         0.0000 
      8 C8         14.2713   -5.5612   -0.3782 C.ar      1 UNK         0.0000 
      9 C9         14.5686   -6.9356   -0.4681 C.ar      1 UNK         0.0000 
     10 C10        15.6910   -7.3652   -1.1928 C.ar      1 UNK         0.0000 
     11 C11        16.5199   -6.4110   -1.8044 C.ar      1 UNK         0.0000 
     12 C12        16.2187   -5.0421   -1.7029 C.ar      1 UNK         0.0000 
     13 C13        15.3780   -2.0329   -1.8475 C.ar      1 UNK         0.0000 
     14 C14        15.7357   -2.3799   -3.1722 C.ar      1 UNK         0.0000 
     15 C15        16.2339   -1.4073   -4.0511 C.ar      1 UNK         0.0000 
     16 C16        16.2513   -0.0546   -3.6768 C.ar      1 UNK         0.0000 
     17 C17        15.7990    0.3581   -2.4048 C.ar      1 UNK         0.0000 
     18 C18        15.6221    1.8005   -2.0870 C.ar      1 UNK         0.0000 
     19 C19        15.3734    2.7533   -3.1057 C.ar      1 UNK         0.0000 
     20 N20        15.0850    4.0531   -2.8896 N.ar      1 UNK         0.0000 
     21 C21        15.0307    4.4848   -1.6166 C.ar      1 UNK         0.0000 
     22 C22        15.2978    3.6534   -0.5188 C.ar      1 UNK         0.0000 
     23 Cl23       15.2309    4.2780    1.0891 Cl        1 UNK         0.0000 
     24 C24        15.6053    2.3015   -0.7646 C.ar      1 UNK         0.0000 
     25 C25        15.4326   -0.6575   -1.4875 C.ar      1 UNK         0.0000 
     26 C26        13.3072   -2.7857   -0.7105 C.2       1 UNK         0.0000 
     27 O27        12.4451   -2.8374   -1.5962 O.2       1 UNK         0.0000 
     28 H28        11.5254   -1.1038    1.0825 H         1 UNK         0.0000 
     29 H29        10.9386   -2.7031    0.6371 H         1 UNK         0.0000 
     30 H30        11.6394   -2.4492    2.2396 H         1 UNK         0.0000 
     31 H31        15.2990   -2.3284    3.0413 H         1 UNK         0.0000 
     32 H32        16.2148   -2.8176    0.8299 H         1 UNK         0.0000 
     33 H33        13.4192   -5.2900    0.2243 H         1 UNK         0.0000 
     34 H34        13.9459   -7.6597    0.0349 H         1 UNK         0.0000 
     35 H35        15.9302   -8.4166   -1.2496 H         1 UNK         0.0000 
     36 H36        17.4132   -6.7098   -2.3269 H         1 UNK         0.0000 
     37 H37        16.9005   -4.3392   -2.1394 H         1 UNK         0.0000 
     38 H38        15.6492   -3.3892   -3.5499 H         1 UNK         0.0000 
     39 H39        16.5692   -1.6944   -5.0379 H         1 UNK         0.0000 
     40 H40        16.5827    0.6667   -4.4089 H         1 UNK         0.0000 
     41 H41        15.3362    2.4537   -4.1431 H         1 UNK         0.0000 
     42 H42        14.7753    5.5228   -1.4712 H         1 UNK         0.0000 
     43 H43        15.8106    1.6512    0.0680 H         1 UNK         0.0000 
     44 H44        15.0959   -0.3618   -0.5079 H         1 UNK         0.0000 
     45 H45        13.6147   -2.0122    3.2793 H         1 UNK         0.0000 
@<TRIPOS>BOND
     1    1    2 1    
     2    1   28 1    
     3    1   29 1    
     4    1   30 1    
     5    2    3 1    
     6    2   26 am   BACKBONE|DICT|INTERRES
     7    3    4 ar   
     8    3    5 ar   
     9    4   31 1    
    10    4   45 1    
    11    5    6 1    
    12    5   32 1    
    13    6    7 1    
    14    6   13 1    
    15    6   26 1    
    16    7    8 ar   
    17    7   12 ar   
    18    8    9 ar   
    19    8   33 1    
    20    9   10 ar   
    21    9   34 1    
    22   10   11 ar   
    23   10   35 1    
    24   11   12 ar   
    25   11   36 1    
    26   12   37 1    
    27   13   14 ar   
    28   13   25 ar   
    29   14   15 ar   
    30   14   38 1    
    31   15   16 ar   
    32   15   39 1    
    33   16   17 ar   
    34   16   40 1    
    35   17   18 1    
    36   17   25 ar   
    37   18   19 ar   
    38   18   24 ar   
    39   19   20 ar   
    40   19   41 1    
    41   20   21 ar   
    42   21   22 ar   
    43   21   42 1    
    44   22   23 1    
    45   22   24 ar   
    46   24   43 1    
    47   25   44 1    
    48   26   27 2    
@<TRIPOS>SUBSTRUCTURE
     1 UNK         1 GROUP             0       ****    0 ROOT    
