@<TRIPOS>MOLECULE
CAT-13f
49   52    1
SMALL
USER_CHARGES


@<TRIPOS>ATOM
      1 C1         11.8157   -1.9869    1.1350 C.3       1 UNK         0.0000 
      2 N2         13.0892   -2.4266    0.5571 N.am      1 UNK         0.0000 
      3 C3         14.2593   -2.5968    1.1965 C.cat     1 UNK         0.0000 
      4 N4         14.4700   -2.4087    2.5072 N.pl3     1 UNK         0.0000 
      5 N5         15.2262   -2.9956    0.3604 N.pl3     1 UNK         0.0000 
      6 C6         14.7421   -3.1088   -1.0217 C.3       1 UNK         0.0000 
      7 C7         15.3912   -2.0431   -1.9333 C.ar      1 UNK         0.0000 
      8 C8         15.9757   -2.3788   -3.1775 C.ar      1 UNK         0.0000 
      9 C9         16.4916   -1.3794   -4.0129 C.ar      1 UNK         0.0000 
     10 C10        16.3751   -0.0274   -3.6532 C.ar      1 UNK         0.0000 
     11 C11        15.8017    0.3581   -2.4240 C.ar      1 UNK         0.0000 
     12 C12        15.5995    1.7924   -2.0988 C.ar      1 UNK         0.0000 
     13 C13        15.3381    2.7307   -3.1262 C.ar      1 UNK         0.0000 
     14 C14        15.0417    4.0765   -2.8331 C.ar      1 UNK         0.0000 
     15 C15        15.0158    4.5162   -1.5001 C.ar      1 UNK         0.0000 
     16 C16        15.3137    3.6154   -0.4660 C.ar      1 UNK         0.0000 
     17 Cl17       15.3090    4.1775    1.1646 Cl        1 UNK         0.0000 
     18 C18        15.6022    2.2676   -0.7658 C.ar      1 UNK         0.0000 
     19 C19        15.3586   -0.6707   -1.5583 C.ar      1 UNK         0.0000 
     20 C20        14.8186   -4.5906   -1.5373 C.3       1 UNK         0.0000 
     21 C21        16.1991   -5.2608   -1.5318 C.3       1 UNK         0.0000 
     22 C22        15.9158   -6.7438   -1.7752 C.3       1 UNK         0.0000 
     23 C23        14.5202   -7.0043   -1.1990 C.3       1 UNK         0.0000 
     24 C24        13.9603   -5.6347   -0.7926 C.3       1 UNK         0.0000 
     25 C25        13.2678   -2.7202   -0.8247 C.2       1 UNK         0.0000 
     26 O26        12.3711   -2.6827   -1.6743 O.2       1 UNK         0.0000 
     27 H27        11.7133   -0.9107    1.0003 H         1 UNK         0.0000 
     28 H28        10.9703   -2.4711    0.6458 H         1 UNK         0.0000 
     29 H29        11.7672   -2.2188    2.1980 H         1 UNK         0.0000 
     30 H30        13.7670   -2.0582    3.1557 H         1 UNK         0.0000 
     31 H31        16.2091   -3.0726    0.6185 H         1 UNK         0.0000 
     32 H32        16.0314   -3.3898   -3.5469 H         1 UNK         0.0000 
     33 H33        16.9446   -1.6507   -4.9560 H         1 UNK         0.0000 
     34 H34        16.7175    0.7188   -4.3522 H         1 UNK         0.0000 
     35 H35        15.3104    2.4107   -4.1575 H         1 UNK         0.0000 
     36 H36        14.8046    4.7704   -3.6259 H         1 UNK         0.0000 
     37 H37        14.7669    5.5420   -1.2680 H         1 UNK         0.0000 
     38 H38        15.8209    1.5921    0.0436 H         1 UNK         0.0000 
     39 H39        14.9086   -0.3862   -0.6190 H         1 UNK         0.0000 
     40 H40        14.4542   -4.6004   -2.5656 H         1 UNK         0.0000 
     41 H41        16.8694   -4.8720   -2.2913 H         1 UNK         0.0000 
     42 H42        16.6839   -5.1340   -0.5622 H         1 UNK         0.0000 
     43 H43        15.9010   -6.9414   -2.8481 H         1 UNK         0.0000 
     44 H44        16.6784   -7.3836   -1.3290 H         1 UNK         0.0000 
     45 H45        13.8876   -7.4731   -1.9550 H         1 UNK         0.0000 
     46 H46        14.5574   -7.6812   -0.3442 H         1 UNK         0.0000 
     47 H47        14.0657   -5.5161    0.2871 H         1 UNK         0.0000 
     48 H48        12.8984   -5.5578   -1.0319 H         1 UNK         0.0000 
     49 H49        15.4198   -2.4955    2.8755 H         1 UNK         0.0000 
@<TRIPOS>BOND
     1    1    2 1    
     2    1   27 1    
     3    1   28 1    
     4    1   29 1    
     5    2    3 1    
     6    2   25 am   BACKBONE|DICT|INTERRES
     7    3    4 ar   
     8    3    5 ar   
     9    4   30 1    
    10    4   49 1    
    11    5    6 1    
    12    5   31 1    
    13    6    7 1    
    14    6   20 1    
    15    6   25 1    
    16    7    8 ar   
    17    7   19 ar   
    18    8    9 ar   
    19    8   32 1    
    20    9   10 ar   
    21    9   33 1    
    22   10   11 ar   
    23   10   34 1    
    24   11   12 1    
    25   11   19 ar   
    26   12   13 ar   
    27   12   18 ar   
    28   13   14 ar   
    29   13   35 1    
    30   14   15 ar   
    31   14   36 1    
    32   15   16 ar   
    33   15   37 1    
    34   16   17 1    
    35   16   18 ar   
    36   18   38 1    
    37   19   39 1    
    38   20   21 1    
    39   20   24 1    
    40   20   40 1    
    41   21   22 1    
    42   21   41 1    
    43   21   42 1    
    44   22   23 1    
    45   22   43 1    
    46   22   44 1    
    47   23   24 1    
    48   23   45 1    
    49   23   46 1    
    50   24   47 1    
    51   24   48 1    
    52   25   26 2    
@<TRIPOS>SUBSTRUCTURE
     1 UNK         1 GROUP             0       ****    0 ROOT    
