@<TRIPOS>MOLECULE
CAT-4m
48   51    1
SMALL
USER_CHARGES


@<TRIPOS>ATOM
      1 C1         15.2085    4.1243    0.7011 C.3       1 UNK         0.0000 
      2 C2         15.3093    3.5222   -0.6861 C.ar      1 UNK         0.0000 
      3 C3         15.1283    4.3252   -1.8220 C.ar      1 UNK         0.0000 
      4 N4         15.2147    3.8466   -3.0718 N.ar      1 UNK         0.0000 
      5 C5         15.4530    2.5306   -3.2366 C.ar      1 UNK         0.0000 
      6 C6         15.6153    1.6087   -2.1788 C.ar      1 UNK         0.0000 
      7 C7         15.7868    0.1570   -2.4348 C.ar      1 UNK         0.0000 
      8 C8         16.3707   -0.3092   -3.6317 C.ar      1 UNK         0.0000 
      9 C9         16.5066   -1.6828   -3.8950 C.ar      1 UNK         0.0000 
     10 C10        16.0172   -2.6317   -2.9816 C.ar      1 UNK         0.0000 
     11 C11        15.4025   -2.2056   -1.7814 C.ar      1 UNK         0.0000 
     12 C12        14.8026   -3.2086   -0.7801 C.3       1 UNK         0.0000 
     13 C13        15.1320   -4.6947   -1.0609 C.ar      1 UNK         0.0000 
     14 C14        14.2712   -5.5707   -1.7659 C.ar      1 UNK         0.0000 
     15 C15        14.6073   -6.9273   -1.9484 C.ar      1 UNK         0.0000 
     16 C16        15.8240   -7.4275   -1.4572 C.ar      1 UNK         0.0000 
     17 C17        16.7057   -6.5689   -0.7893 C.ar      1 UNK         0.0000 
     18 C18        16.3487   -5.2261   -0.5817 C.ar      1 UNK         0.0000 
     19 N19        15.2233   -2.8833    0.5825 N.pl3     1 UNK         0.0000 
     20 C20        14.1991   -2.6017    1.3845 C.cat     1 UNK         0.0000 
     21 N21        14.3717   -2.3498    2.6843 N.pl3     1 UNK         0.0000 
     22 N22        13.0321   -2.6160    0.7246 N.am      1 UNK         0.0000 
     23 C23        11.7078   -2.2824    1.2642 C.3       1 UNK         0.0000 
     24 C24        13.2839   -2.9557   -0.6374 C.2       1 UNK         0.0000 
     25 O25        12.4104   -2.9973   -1.5122 O.2       1 UNK         0.0000 
     26 C26        15.3260   -0.8127   -1.5146 C.ar      1 UNK         0.0000 
     27 C27        15.5648    2.1498   -0.8756 C.ar      1 UNK         0.0000 
     28 H28        16.0316    3.7903    1.3335 H         1 UNK         0.0000 
     29 H29        15.2299    5.2141    0.6616 H         1 UNK         0.0000 
     30 H30        14.2698    3.8305    1.1666 H         1 UNK         0.0000 
     31 H31        14.9149    5.3799   -1.7273 H         1 UNK         0.0000 
     32 H32        15.4710    2.1996   -4.2636 H         1 UNK         0.0000 
     33 H33        16.7223    0.3878   -4.3751 H         1 UNK         0.0000 
     34 H34        16.9757   -2.0017   -4.8152 H         1 UNK         0.0000 
     35 H35        16.1174   -3.6800   -3.2289 H         1 UNK         0.0000 
     36 H36        13.3311   -5.2285   -2.1606 H         1 UNK         0.0000 
     37 H37        13.9284   -7.5908   -2.4623 H         1 UNK         0.0000 
     38 H38        16.0818   -8.4658   -1.5745 H         1 UNK         0.0000 
     39 H39        17.6490   -6.9379   -0.4113 H         1 UNK         0.0000 
     40 H40        17.0227   -4.6017   -0.0248 H         1 UNK         0.0000 
     41 H41        16.2018   -2.8881    0.8703 H         1 UNK         0.0000 
     42 H42        13.6303   -2.0608    3.3203 H         1 UNK         0.0000 
     43 H43        10.9229   -2.8522    0.7663 H         1 UNK         0.0000 
     44 H44        11.6536   -2.4945    2.3313 H         1 UNK         0.0000 
     45 H45        11.5087   -1.2228    1.1074 H         1 UNK         0.0000 
     46 H46        14.8550   -0.4759   -0.6034 H         1 UNK         0.0000 
     47 H47        15.7154    1.5136   -0.0204 H         1 UNK         0.0000 
     48 H48        15.3155   -2.3598    3.0735 H         1 UNK         0.0000 
@<TRIPOS>BOND
     1    1    2 1    
     2    1   28 1    
     3    1   29 1    
     4    1   30 1    
     5    2    3 ar   
     6    2   27 ar   
     7    3    4 ar   
     8    3   31 1    
     9    4    5 ar   
    10    5    6 ar   
    11    5   32 1    
    12    6    7 1    
    13    6   27 ar   
    14    7    8 ar   
    15    7   26 ar   
    16    8    9 ar   
    17    8   33 1    
    18    9   10 ar   
    19    9   34 1    
    20   10   11 ar   
    21   10   35 1    
    22   11   12 1    
    23   11   26 ar   
    24   12   13 1    
    25   12   19 1    
    26   12   24 1    
    27   13   14 ar   
    28   13   18 ar   
    29   14   15 ar   
    30   14   36 1    
    31   15   16 ar   
    32   15   37 1    
    33   16   17 ar   
    34   16   38 1    
    35   17   18 ar   
    36   17   39 1    
    37   18   40 1    
    38   19   20 ar   
    39   19   41 1    
    40   20   21 ar   
    41   20   22 1    
    42   21   42 1    
    43   21   48 1    
    44   22   23 1    
    45   22   24 am   BACKBONE|DICT|INTERRES
    46   23   43 1    
    47   23   44 1    
    48   23   45 1    
    49   24   25 2    
    50   26   46 1    
    51   27   47 1    
@<TRIPOS>SUBSTRUCTURE
     1 UNK         1 GROUP             0       ****    0 ROOT    
