@<TRIPOS>MOLECULE
CAT-13c
45   47    1
SMALL
USER_CHARGES


@<TRIPOS>ATOM
      1 C1         14.8243   -5.5742   -0.0947 C.3       1 UNK         0.0000 
      2 C2         15.4101   -4.5803   -1.1308 C.3       1 UNK         0.0000 
      3 C3         15.0445   -5.1774   -2.5045 C.3       1 UNK         0.0000 
      4 C4         14.9998   -3.0811   -0.8556 C.3       1 UNK         0.0000 
      5 C5         15.6258   -1.9906   -1.7553 C.ar      1 UNK         0.0000 
      6 C6         16.4955   -2.2936   -2.8279 C.ar      1 UNK         0.0000 
      7 C7         16.9111   -1.2926   -3.7153 C.ar      1 UNK         0.0000 
      8 C8         16.5206    0.0385   -3.5029 C.ar      1 UNK         0.0000 
      9 C9         15.7885    0.4123   -2.3599 C.ar      1 UNK         0.0000 
     10 C10        15.4739    1.8324   -2.0914 C.ar      1 UNK         0.0000 
     11 C11        15.1414    2.7151   -3.1458 C.ar      1 UNK         0.0000 
     12 C12        14.7981    4.0583   -2.8917 C.ar      1 UNK         0.0000 
     13 C13        14.7943    4.5475   -1.5747 C.ar      1 UNK         0.0000 
     14 C14        15.1524    3.6968   -0.5157 C.ar      1 UNK         0.0000 
     15 Cl15       15.1667    4.3072    1.0977 Cl        1 UNK         0.0000 
     16 C16        15.4905    2.3531   -0.7758 C.ar      1 UNK         0.0000 
     17 C17        15.3469   -0.6200   -1.5014 C.ar      1 UNK         0.0000 
     18 N18        15.3359   -2.7757    0.5285 N.pl3     1 UNK         0.0000 
     19 C19        14.2637   -2.5233    1.2771 C.cat     1 UNK         0.0000 
     20 N20        14.3552   -2.2987    2.5928 N.pl3     1 UNK         0.0000 
     21 N21        13.1359   -2.5504    0.5500 N.am      1 UNK         0.0000 
     22 C22        11.7814   -2.2577    1.0358 C.3       1 UNK         0.0000 
     23 C23        13.4689   -2.8905   -0.7989 C.2       1 UNK         0.0000 
     24 O24        12.6469   -3.0008   -1.7148 O.2       1 UNK         0.0000 
     25 H25        14.9202   -5.2280    0.9322 H         1 UNK         0.0000 
     26 H26        13.7610   -5.7564   -0.2621 H         1 UNK         0.0000 
     27 H27        15.3243   -6.5432   -0.1594 H         1 UNK         0.0000 
     28 H28        16.4947   -4.6261   -1.0370 H         1 UNK         0.0000 
     29 H29        15.5206   -6.1495   -2.6416 H         1 UNK         0.0000 
     30 H30        13.9725   -5.3529   -2.5664 H         1 UNK         0.0000 
     31 H31        15.3121   -4.5773   -3.3684 H         1 UNK         0.0000 
     32 H32        16.8570   -3.2884   -3.0200 H         1 UNK         0.0000 
     33 H33        17.5257   -1.5537   -4.5674 H         1 UNK         0.0000 
     34 H34        16.8153    0.7851   -4.2160 H         1 UNK         0.0000 
     35 H35        15.1171    2.3517   -4.1629 H         1 UNK         0.0000 
     36 H36        14.5198    4.7129   -3.7050 H         1 UNK         0.0000 
     37 H37        14.5170    5.5730   -1.3742 H         1 UNK         0.0000 
     38 H38        15.7714    1.7167    0.0475 H         1 UNK         0.0000 
     39 H39        14.7438   -0.3437   -0.6505 H         1 UNK         0.0000 
     40 H40        16.2978   -2.7814    0.8714 H         1 UNK         0.0000 
     41 H41        13.5760   -2.0345    3.1926 H         1 UNK         0.0000 
     42 H42        11.0172   -2.6393    0.3588 H         1 UNK         0.0000 
     43 H43        11.6229   -2.7045    2.0161 H         1 UNK         0.0000 
     44 H44        11.6547   -1.1800    1.1210 H         1 UNK         0.0000 
     45 H45        15.2760   -2.3086    3.0316 H         1 UNK         0.0000 
@<TRIPOS>BOND
     1    1    2 1    
     2    1   25 1    
     3    1   26 1    
     4    1   27 1    
     5    2    3 1    
     6    2    4 1    
     7    2   28 1    
     8    3   29 1    
     9    3   30 1    
    10    3   31 1    
    11    4    5 1    
    12    4   18 1    
    13    4   23 1    
    14    5    6 ar   
    15    5   17 ar   
    16    6    7 ar   
    17    6   32 1    
    18    7    8 ar   
    19    7   33 1    
    20    8    9 ar   
    21    8   34 1    
    22    9   10 1    
    23    9   17 ar   
    24   10   11 ar   
    25   10   16 ar   
    26   11   12 ar   
    27   11   35 1    
    28   12   13 ar   
    29   12   36 1    
    30   13   14 ar   
    31   13   37 1    
    32   14   15 1    
    33   14   16 ar   
    34   16   38 1    
    35   17   39 1    
    36   18   19 ar   
    37   18   40 1    
    38   19   20 ar   
    39   19   21 1    
    40   20   41 1    
    41   20   45 1    
    42   21   22 1    
    43   21   23 am   BACKBONE|DICT|INTERRES
    44   22   42 1    
    45   22   43 1    
    46   22   44 1    
    47   23   24 2    
@<TRIPOS>SUBSTRUCTURE
     1 UNK         1 GROUP             0       ****    0 ROOT    
