@<TRIPOS>MOLECULE
CAT-13i
46   49    1
SMALL
USER_CHARGES


@<TRIPOS>ATOM
      1 C1         11.7066   -2.3243    1.1522 C.3       1 UNK         0.0000 
      2 N2         13.0800   -2.5317    0.6754 N.am      1 UNK         0.0000 
      3 C3         14.2034   -2.4301    1.3983 C.cat     1 UNK         0.0000 
      4 N4         14.2886   -2.2311    2.7108 N.pl3     1 UNK         0.0000 
      5 N5         15.2911   -2.5895    0.6543 N.pl3     1 UNK         0.0000 
      6 C6         14.9789   -2.9821   -0.7080 C.3       1 UNK         0.0000 
      7 C7         15.4754   -4.4511   -0.8097 C.3       1 UNK         0.0000 
      8 C8         15.0159   -5.2708   -1.9954 C.3       1 UNK         0.0000 
      9 C9         16.0514   -5.9027   -2.8811 C.3       1 UNK         0.0000 
     10 C10        15.1860   -6.7771   -2.0216 C.3       1 UNK         0.0000 
     11 C11        15.5532   -1.9672   -1.7162 C.ar      1 UNK         0.0000 
     12 C12        16.2219   -2.3572   -2.8994 C.ar      1 UNK         0.0000 
     13 C13        16.6507   -1.3904   -3.8245 C.ar      1 UNK         0.0000 
     14 C14        16.4179   -0.0251   -3.5806 C.ar      1 UNK         0.0000 
     15 C15        15.8037    0.4089   -2.3876 C.ar      1 UNK         0.0000 
     16 C16        15.5510    1.8451   -2.1204 C.ar      1 UNK         0.0000 
     17 C17        15.2562    2.7420   -3.1736 C.ar      1 UNK         0.0000 
     18 C18        14.9250    4.0879   -2.9144 C.ar      1 UNK         0.0000 
     19 C19        14.8974    4.5661   -1.5934 C.ar      1 UNK         0.0000 
     20 C20        15.2242    3.7028   -0.5356 C.ar      1 UNK         0.0000 
     21 Cl21       15.2032    4.2948    1.0849 Cl        1 UNK         0.0000 
     22 C22        15.5515    2.3585   -0.8014 C.ar      1 UNK         0.0000 
     23 C23        15.3871   -0.5807   -1.4698 C.ar      1 UNK         0.0000 
     24 C24        13.4407   -2.8723   -0.6618 C.2       1 UNK         0.0000 
     25 O25        12.6320   -3.0299   -1.5816 O.2       1 UNK         0.0000 
     26 H26        11.6045   -2.6345    2.1919 H         1 UNK         0.0000 
     27 H27        11.4528   -1.2670    1.0806 H         1 UNK         0.0000 
     28 H28        10.9882   -2.8880    0.5564 H         1 UNK         0.0000 
     29 H29        13.5001   -2.0136    3.3166 H         1 UNK         0.0000 
     30 H30        16.2490   -2.5893    1.0094 H         1 UNK         0.0000 
     31 H31        15.1583   -4.9961    0.0813 H         1 UNK         0.0000 
     32 H32        16.5650   -4.4616   -0.7696 H         1 UNK         0.0000 
     33 H33        14.1142   -4.9159   -2.4837 H         1 UNK         0.0000 
     34 H34        15.8387   -5.7722   -3.9334 H         1 UNK         0.0000 
     35 H35        17.0974   -5.8246   -2.6005 H         1 UNK         0.0000 
     36 H36        15.6529   -7.2541   -1.1618 H         1 UNK         0.0000 
     37 H37        14.4212   -7.3678   -2.5220 H         1 UNK         0.0000 
     38 H38        16.4112   -3.3885   -3.1398 H         1 UNK         0.0000 
     39 H39        17.1458   -1.6957   -4.7368 H         1 UNK         0.0000 
     40 H40        16.7204    0.6932   -4.3262 H         1 UNK         0.0000 
     41 H41        15.2353    2.3868   -4.1937 H         1 UNK         0.0000 
     42 H42        14.6630    4.7530   -3.7239 H         1 UNK         0.0000 
     43 H43        14.6225    5.5912   -1.3891 H         1 UNK         0.0000 
     44 H44        15.7971    1.7149    0.0269 H         1 UNK         0.0000 
     45 H45        14.8794   -0.2617   -0.5736 H         1 UNK         0.0000 
     46 H46        15.2059   -2.2088    3.1539 H         1 UNK         0.0000 
@<TRIPOS>BOND
     1    1    2 1    
     2    1   26 1    
     3    1   27 1    
     4    1   28 1    
     5    2    3 1    
     6    2   24 am   BACKBONE|DICT|INTERRES
     7    3    4 ar   
     8    3    5 ar   
     9    4   29 1    
    10    4   46 1    
    11    5    6 1    
    12    5   30 1    
    13    6    7 1    
    14    6   11 1    
    15    6   24 1    
    16    7    8 1    
    17    7   31 1    
    18    7   32 1    
    19    8    9 1    
    20    8   10 1    
    21    8   33 1    
    22    9   10 1    
    23    9   34 1    
    24    9   35 1    
    25   10   36 1    
    26   10   37 1    
    27   11   12 ar   
    28   11   23 ar   
    29   12   13 ar   
    30   12   38 1    
    31   13   14 ar   
    32   13   39 1    
    33   14   15 ar   
    34   14   40 1    
    35   15   16 1    
    36   15   23 ar   
    37   16   17 ar   
    38   16   22 ar   
    39   17   18 ar   
    40   17   41 1    
    41   18   19 ar   
    42   18   42 1    
    43   19   20 ar   
    44   19   43 1    
    45   20   21 1    
    46   20   22 ar   
    47   22   44 1    
    48   23   45 1    
    49   24   25 2    
@<TRIPOS>SUBSTRUCTURE
     1 UNK         1 GROUP             0       ****    0 ROOT    
