@<TRIPOS>MOLECULE
CAT-13h
46   49    1
SMALL
USER_CHARGES


@<TRIPOS>ATOM
      1 C1         11.7684   -1.9959    1.1324 C.3       1 UNK         0.0000 
      2 N2         13.0773   -2.4188    0.6254 N.am      1 UNK         0.0000 
      3 C3         14.2291   -2.5040    1.3137 C.cat     1 UNK         0.0000 
      4 N4         14.3929   -2.2698    2.6191 N.pl3     1 UNK         0.0000 
      5 N5         15.2451   -2.8865    0.5393 N.pl3     1 UNK         0.0000 
      6 C6         14.8082   -3.1964   -0.8186 C.3       1 UNK         0.0000 
      7 C7         15.4852   -2.1794   -1.7990 C.ar      1 UNK         0.0000 
      8 C8         16.1731   -2.5185   -2.9932 C.ar      1 UNK         0.0000 
      9 C9         16.6532   -1.5251   -3.8618 C.ar      1 UNK         0.0000 
     10 C10        16.4491   -0.1688   -3.5713 C.ar      1 UNK         0.0000 
     11 C11        15.8247    0.2326   -2.3765 C.ar      1 UNK         0.0000 
     12 C12        15.5945    1.6726   -2.0932 C.ar      1 UNK         0.0000 
     13 C13        15.3339    2.5855   -3.1442 C.ar      1 UNK         0.0000 
     14 C14        15.0299    3.9370   -2.8820 C.ar      1 UNK         0.0000 
     15 C15        15.0030    4.4103   -1.5608 C.ar      1 UNK         0.0000 
     16 C16        15.3015    3.5355   -0.5053 C.ar      1 UNK         0.0000 
     17 Cl17       15.2995    4.1388    1.1106 Cl        1 UNK         0.0000 
     18 C18        15.5922    2.1813   -0.7728 C.ar      1 UNK         0.0000 
     19 C19        15.3791   -0.7861   -1.4997 C.ar      1 UNK         0.0000 
     20 C20        14.9144   -4.7626   -0.9856 C.3       1 UNK         0.0000 
     21 C21        14.1547   -5.5339    0.1086 C.3       1 UNK         0.0000 
     22 C22        14.8874   -5.4504   -2.3330 C.3       1 UNK         0.0000 
     23 C23        16.1530   -5.4449   -1.5196 C.3       1 UNK         0.0000 
     24 C24        13.3202   -2.8066   -0.7246 C.2       1 UNK         0.0000 
     25 O25        12.4613   -2.8390   -1.6128 O.2       1 UNK         0.0000 
     26 H26        11.6694   -2.2266    2.1924 H         1 UNK         0.0000 
     27 H27        11.6575   -0.9215    0.9898 H         1 UNK         0.0000 
     28 H28        10.9559   -2.4934    0.6024 H         1 UNK         0.0000 
     29 H29        13.6578   -1.9498    3.2470 H         1 UNK         0.0000 
     30 H30        16.2187   -2.9494    0.8388 H         1 UNK         0.0000 
     31 H31        16.3613   -3.5214   -3.3226 H         1 UNK         0.0000 
     32 H32        17.1603   -1.8031   -4.7762 H         1 UNK         0.0000 
     33 H33        16.7780    0.5693   -4.2846 H         1 UNK         0.0000 
     34 H34        15.3170    2.2428   -4.1689 H         1 UNK         0.0000 
     35 H35        14.7867    4.6128   -3.6877 H         1 UNK         0.0000 
     36 H36        14.7514    5.4411   -1.3547 H         1 UNK         0.0000 
     37 H37        15.8182    1.5269    0.0513 H         1 UNK         0.0000 
     38 H38        14.8801   -0.4710   -0.5956 H         1 UNK         0.0000 
     39 H39        14.4413   -5.2246    1.1136 H         1 UNK         0.0000 
     40 H40        13.0753   -5.4266   -0.0014 H         1 UNK         0.0000 
     41 H41        14.3669   -6.6018    0.0392 H         1 UNK         0.0000 
     42 H42        14.3561   -6.3971   -2.4158 H         1 UNK         0.0000 
     43 H43        14.8225   -4.8302   -3.2131 H         1 UNK         0.0000 
     44 H44        16.9645   -4.8200   -1.8430 H         1 UNK         0.0000 
     45 H45        16.4620   -6.3805   -1.0573 H         1 UNK         0.0000 
     46 H46        15.3286   -2.3341    3.0225 H         1 UNK         0.0000 
@<TRIPOS>BOND
     1    1    2 1    
     2    1   26 1    
     3    1   27 1    
     4    1   28 1    
     5    2    3 1    
     6    2   24 am   BACKBONE|DICT|INTERRES
     7    3    4 ar   
     8    3    5 ar   
     9    4   29 1    
    10    4   46 1    
    11    5    6 1    
    12    5   30 1    
    13    6    7 1    
    14    6   20 1    
    15    6   24 1    
    16    7    8 ar   
    17    7   19 ar   
    18    8    9 ar   
    19    8   31 1    
    20    9   10 ar   
    21    9   32 1    
    22   10   11 ar   
    23   10   33 1    
    24   11   12 1    
    25   11   19 ar   
    26   12   13 ar   
    27   12   18 ar   
    28   13   14 ar   
    29   13   34 1    
    30   14   15 ar   
    31   14   35 1    
    32   15   16 ar   
    33   15   36 1    
    34   16   17 1    
    35   16   18 ar   
    36   18   37 1    
    37   19   38 1    
    38   20   21 1    
    39   20   22 1    
    40   20   23 1    
    41   21   39 1    
    42   21   40 1    
    43   21   41 1    
    44   22   23 1    
    45   22   42 1    
    46   22   43 1    
    47   23   44 1    
    48   23   45 1    
    49   24   25 2    
@<TRIPOS>SUBSTRUCTURE
     1 UNK         1 GROUP             0       ****    0 ROOT    
