@<TRIPOS>MOLECULE
CAT-17g
42   45    1
SMALL
USER_CHARGES


@<TRIPOS>ATOM
      1 C1         11.7983   -2.3992    1.0873 C.3       1 UNK         0.0000 
      2 N2         13.1443   -2.7114    0.5887 N.am      1 UNK         0.0000 
      3 C3         14.2829   -2.6375    1.2928 C.cat     1 UNK         0.0000 
      4 N4         14.3925   -2.3414    2.5935 N.pl3     1 UNK         0.0000 
      5 N5         15.3435   -2.9154    0.5357 N.pl3     1 UNK         0.0000 
      6 C6         14.9934   -3.2409   -0.8409 C.3       1 UNK         0.0000 
      7 C7         15.5293   -2.1817   -1.8225 C.ar      1 UNK         0.0000 
      8 C8         16.1088   -2.5505   -3.0596 C.ar      1 UNK         0.0000 
      9 C9         16.5416   -1.5649   -3.9599 C.ar      1 UNK         0.0000 
     10 C10        16.3804   -0.2048   -3.6507 C.ar      1 UNK         0.0000 
     11 C11        15.8269    0.2069   -2.4200 C.ar      1 UNK         0.0000 
     12 C12        15.6415    1.6448   -2.1094 C.ar      1 UNK         0.0000 
     13 C13        15.4595    2.6157   -3.1212 C.ar      1 UNK         0.0000 
     14 N14        15.2266    3.9242   -2.8892 N.ar      1 UNK         0.0000 
     15 C15        15.1698    4.3401   -1.6094 C.ar      1 UNK         0.0000 
     16 C16        15.3731    3.4813   -0.5178 C.ar      1 UNK         0.0000 
     17 F17        15.3297    3.9442    0.7545 F         1 UNK         0.0000 
     18 C18        15.6171    2.1235   -0.7816 C.ar      1 UNK         0.0000 
     19 C19        15.4212   -0.8013   -1.5126 C.ar      1 UNK         0.0000 
     20 C20        15.5511   -4.6479   -1.1200 C.3       1 UNK         0.0000 
     21 C21        14.9107   -5.9232   -0.6062 C.3       1 UNK         0.0000 
     22 C22        14.9367   -5.6375   -2.0871 C.3       1 UNK         0.0000 
     23 C23        13.4575   -3.1148   -0.7473 C.2       1 UNK         0.0000 
     24 O24        12.6184   -3.2763   -1.6385 O.2       1 UNK         0.0000 
     25 H25        11.6583   -2.7981    2.0920 H         1 UNK         0.0000 
     26 H26        11.6668   -1.3181    1.1257 H         1 UNK         0.0000 
     27 H27        11.0222   -2.8146    0.4440 H         1 UNK         0.0000 
     28 H28        13.6188   -2.0644    3.1944 H         1 UNK         0.0000 
     29 H29        16.3119   -2.8865    0.8616 H         1 UNK         0.0000 
     30 H30        16.2272   -3.5834   -3.3537 H         1 UNK         0.0000 
     31 H31        16.9848   -1.8491   -4.9043 H         1 UNK         0.0000 
     32 H32        16.6901    0.5209   -4.3861 H         1 UNK         0.0000 
     33 H33        15.4607    2.3332   -4.1627 H         1 UNK         0.0000 
     34 H34        14.9602    5.3877   -1.4506 H         1 UNK         0.0000 
     35 H35        15.7909    1.4551    0.0429 H         1 UNK         0.0000 
     36 H36        14.9728   -0.5100   -0.5744 H         1 UNK         0.0000 
     37 H37        16.6384   -4.6589   -1.0912 H         1 UNK         0.0000 
     38 H38        15.5745   -6.7044   -0.2407 H         1 UNK         0.0000 
     39 H39        13.9463   -5.8678   -0.1054 H         1 UNK         0.0000 
     40 H40        13.9883   -5.3931   -2.5517 H         1 UNK         0.0000 
     41 H41        15.6154   -6.2214   -2.7067 H         1 UNK         0.0000 
     42 H42        15.3190   -2.3296    3.0221 H         1 UNK         0.0000 
@<TRIPOS>BOND
     1    1    2 1    
     2    1   25 1    
     3    1   26 1    
     4    1   27 1    
     5    2    3 1    
     6    2   23 am   BACKBONE|DICT|INTERRES
     7    3    4 ar   
     8    3    5 ar   
     9    4   28 1    
    10    4   42 1    
    11    5    6 1    
    12    5   29 1    
    13    6    7 1    
    14    6   20 1    
    15    6   23 1    
    16    7    8 ar   
    17    7   19 ar   
    18    8    9 ar   
    19    8   30 1    
    20    9   10 ar   
    21    9   31 1    
    22   10   11 ar   
    23   10   32 1    
    24   11   12 1    
    25   11   19 ar   
    26   12   13 ar   
    27   12   18 ar   
    28   13   14 ar   
    29   13   33 1    
    30   14   15 ar   
    31   15   16 ar   
    32   15   34 1    
    33   16   18 ar   
    34   16   17 1    
    35   18   35 1    
    36   19   36 1    
    37   20   21 1    
    38   20   22 1    
    39   20   37 1    
    40   21   22 1    
    41   21   38 1    
    42   21   39 1    
    43   22   40 1    
    44   22   41 1    
    45   23   24 2    
@<TRIPOS>SUBSTRUCTURE
     1 UNK         1 GROUP             0       ****    0 ROOT    
