@<TRIPOS>MOLECULE
CAT-4i
45   48    1
SMALL
USER_CHARGES


@<TRIPOS>ATOM
      1 C1         11.6799   -2.2515    1.3709 C.3       1 UNK         0.0000 
      2 N2         12.9871   -2.4645    0.7394 N.am      1 UNK         0.0000 
      3 C3         14.1849   -2.5408    1.3426 C.cat     1 UNK         0.0000 
      4 N4         14.4085   -2.4164    2.6556 N.pl3     1 UNK         0.0000 
      5 N5         15.1680   -2.7715    0.4653 N.pl3     1 UNK         0.0000 
      6 C6         14.6502   -2.9656   -0.8909 C.3       1 UNK         0.0000 
      7 C7         14.8475   -4.4552   -1.2486 C.ar      1 UNK         0.0000 
      8 C8         13.8636   -5.4580   -1.0220 C.ar      1 UNK         0.0000 
      9 C9         14.1122   -6.8048   -1.3507 C.ar      1 UNK         0.0000 
     10 C10        15.3438   -7.1712   -1.9163 C.ar      1 UNK         0.0000 
     11 C11        16.3455   -6.2032   -2.0969 C.ar      1 UNK         0.0000 
     12 C12        16.1027   -4.8702   -1.7351 C.ar      1 UNK         0.0000 
     13 C13        15.2192   -1.9235   -1.8834 C.ar      1 UNK         0.0000 
     14 C14        15.5984   -2.2557   -3.2072 C.ar      1 UNK         0.0000 
     15 C15        16.1188   -1.2726   -4.0620 C.ar      1 UNK         0.0000 
     16 C16        16.1734    0.0730   -3.6556 C.ar      1 UNK         0.0000 
     17 C17        15.7349    0.4623   -2.3714 C.ar      1 UNK         0.0000 
     18 C18        15.6381    1.8956   -1.9854 C.ar      1 UNK         0.0000 
     19 C19        15.6686    2.3241   -0.6448 C.ar      1 UNK         0.0000 
     20 C20        15.3940    3.6637   -0.3351 C.ar      1 UNK         0.0000 
     21 C21        15.0983    4.5443   -1.3837 C.ar      1 UNK         0.0000 
     22 C22        15.1361    4.0514   -2.6961 C.ar      1 UNK         0.0000 
     23 N23        15.4016    2.7638   -2.9930 N.ar      1 UNK         0.0000 
     24 C24        15.3176   -0.5642   -1.4872 C.ar      1 UNK         0.0000 
     25 C25        13.1637   -2.6425   -0.6619 C.2       1 UNK         0.0000 
     26 O26        12.2501   -2.5949   -1.4964 O.2       1 UNK         0.0000 
     27 H27        11.7437   -2.3618    2.4529 H         1 UNK         0.0000 
     28 H28        11.3123   -1.2542    1.1296 H         1 UNK         0.0000 
     29 H29        10.9552   -2.9810    1.0088 H         1 UNK         0.0000 
     30 H30        15.3668   -2.4681    3.0041 H         1 UNK         0.0000 
     31 H31        16.1551   -2.8599    0.7041 H         1 UNK         0.0000 
     32 H32        12.9016   -5.2397   -0.5855 H         1 UNK         0.0000 
     33 H33        13.3537   -7.5586   -1.1781 H         1 UNK         0.0000 
     34 H34        15.5208   -8.1951   -2.1987 H         1 UNK         0.0000 
     35 H35        17.3016   -6.4672   -2.5163 H         1 UNK         0.0000 
     36 H36        16.8780   -4.1347   -1.8690 H         1 UNK         0.0000 
     37 H37        15.5199   -3.2608   -3.5989 H         1 UNK         0.0000 
     38 H38        16.4500   -1.5558   -5.0471 H         1 UNK         0.0000 
     39 H39        16.5221    0.8208   -4.3560 H         1 UNK         0.0000 
     40 H40        15.8684    1.6239    0.1454 H         1 UNK         0.0000 
     41 H41        15.3941    4.0062    0.6886 H         1 UNK         0.0000 
     42 H42        14.8564    5.5796   -1.1863 H         1 UNK         0.0000 
     43 H43        14.9279    4.7142   -3.5247 H         1 UNK         0.0000 
     44 H44        14.9877   -0.2835   -0.5003 H         1 UNK         0.0000 
     45 H45        13.6998   -2.1133    3.3230 H         1 UNK         0.0000 
@<TRIPOS>BOND
     1    1    2 1    
     2    1   27 1    
     3    1   28 1    
     4    1   29 1    
     5    2    3 1    
     6    2   25 am   BACKBONE|DICT|INTERRES
     7    3    4 ar   
     8    3    5 ar   
     9    4   30 1    
    10    4   45 1    
    11    5    6 1    
    12    5   31 1    
    13    6    7 1    
    14    6   13 1    
    15    6   25 1    
    16    7    8 ar   
    17    7   12 ar   
    18    8    9 ar   
    19    8   32 1    
    20    9   10 ar   
    21    9   33 1    
    22   10   11 ar   
    23   10   34 1    
    24   11   12 ar   
    25   11   35 1    
    26   12   36 1    
    27   13   14 ar   
    28   13   24 ar   
    29   14   15 ar   
    30   14   37 1    
    31   15   16 ar   
    32   15   38 1    
    33   16   17 ar   
    34   16   39 1    
    35   17   18 1    
    36   17   24 ar   
    37   18   19 ar   
    38   18   23 ar   
    39   19   20 ar   
    40   19   40 1    
    41   20   21 ar   
    42   20   41 1    
    43   21   22 ar   
    44   21   42 1    
    45   22   23 ar   
    46   22   43 1    
    47   24   44 1    
    48   25   26 2    
@<TRIPOS>SUBSTRUCTURE
     1 UNK         1 GROUP             0       ****    0 ROOT    
