@<TRIPOS>MOLECULE
CAT-13e
46   49    1
SMALL
USER_CHARGES


@<TRIPOS>ATOM
      1 C1         11.8366   -2.0143    1.1169 C.3       1 UNK         0.0000 
      2 N2         13.1188   -2.4437    0.5483 N.am      1 UNK         0.0000 
      3 C3         14.2835   -2.6029    1.1994 C.cat     1 UNK         0.0000 
      4 N4         14.4756   -2.4186    2.5137 N.pl3     1 UNK         0.0000 
      5 N5         15.2647   -2.9842    0.3717 N.pl3     1 UNK         0.0000 
      6 C6         14.8037   -3.0771   -1.0176 C.3       1 UNK         0.0000 
      7 C7         15.4609   -2.0005   -1.9043 C.ar      1 UNK         0.0000 
      8 C8         16.1507   -2.3399   -3.0923 C.ar      1 UNK         0.0000 
      9 C9         16.6412   -1.3353   -3.9384 C.ar      1 UNK         0.0000 
     10 C10        16.4312    0.0173   -3.6223 C.ar      1 UNK         0.0000 
     11 C11        15.8006    0.4013   -2.4216 C.ar      1 UNK         0.0000 
     12 C12        15.5617    1.8313   -2.1119 C.ar      1 UNK         0.0000 
     13 C13        15.2806    2.7552   -3.1459 C.ar      1 UNK         0.0000 
     14 C14        14.9680    4.0995   -2.8611 C.ar      1 UNK         0.0000 
     15 C15        14.9450    4.5495   -1.5306 C.ar      1 UNK         0.0000 
     16 C16        15.2585    3.6600   -0.4907 C.ar      1 UNK         0.0000 
     17 Cl17       15.2530    4.2287    1.1379 Cl        1 UNK         0.0000 
     18 C18        15.5642    2.3147   -0.7822 C.ar      1 UNK         0.0000 
     19 C19        15.3492   -0.6258   -1.5607 C.ar      1 UNK         0.0000 
     20 C20        14.9081   -4.5247   -1.5628 C.3       1 UNK         0.0000 
     21 C21        16.2085   -5.3448   -1.4851 C.3       1 UNK         0.0000 
     22 C22        15.3498   -6.6076   -1.3805 C.3       1 UNK         0.0000 
     23 C23        14.2260   -5.7116   -0.8517 C.3       1 UNK         0.0000 
     24 C24        13.3175   -2.7297   -0.8331 C.2       1 UNK         0.0000 
     25 O25        12.4290   -2.7005   -1.6920 O.2       1 UNK         0.0000 
     26 H26        10.9979   -2.4909    0.6089 H         1 UNK         0.0000 
     27 H27        11.7343   -0.9359    1.0001 H         1 UNK         0.0000 
     28 H28        11.7740   -2.2620    2.1758 H         1 UNK         0.0000 
     29 H29        13.7626   -2.0742    3.1546 H         1 UNK         0.0000 
     30 H30        16.2456   -3.0537    0.6408 H         1 UNK         0.0000 
     31 H31        16.3017   -3.3615   -3.4049 H         1 UNK         0.0000 
     32 H32        17.1519   -1.6038   -4.8532 H         1 UNK         0.0000 
     33 H33        16.7592    0.7670   -4.3239 H         1 UNK         0.0000 
     34 H34        15.2563    2.4232   -4.1736 H         1 UNK         0.0000 
     35 H35        14.7191    4.7841   -3.6584 H         1 UNK         0.0000 
     36 H36        14.6860    5.5743   -1.3054 H         1 UNK         0.0000 
     37 H37        15.7996    1.6478    0.0301 H         1 UNK         0.0000 
     38 H38        14.8418   -0.3405   -0.6514 H         1 UNK         0.0000 
     39 H39        14.5534   -4.5487   -2.5962 H         1 UNK         0.0000 
     40 H40        16.7847   -5.1575   -0.5771 H         1 UNK         0.0000 
     41 H41        16.8343   -5.3103   -2.3764 H         1 UNK         0.0000 
     42 H42        15.1204   -7.0484   -2.3536 H         1 UNK         0.0000 
     43 H43        15.7159   -7.3538   -0.6741 H         1 UNK         0.0000 
     44 H44        14.2345   -5.6344    0.2373 H         1 UNK         0.0000 
     45 H45        13.2338   -5.9638   -1.2299 H         1 UNK         0.0000 
     46 H46        15.4219   -2.4979    2.8926 H         1 UNK         0.0000 
@<TRIPOS>BOND
     1    1    2 1    
     2    1   26 1    
     3    1   27 1    
     4    1   28 1    
     5    2    3 1    
     6    2   24 am   BACKBONE|DICT|INTERRES
     7    3    4 ar   
     8    3    5 ar   
     9    4   29 1    
    10    4   46 1    
    11    5    6 1    
    12    5   30 1    
    13    6    7 1    
    14    6   20 1    
    15    6   24 1    
    16    7    8 ar   
    17    7   19 ar   
    18    8    9 ar   
    19    8   31 1    
    20    9   10 ar   
    21    9   32 1    
    22   10   11 ar   
    23   10   33 1    
    24   11   12 1    
    25   11   19 ar   
    26   12   13 ar   
    27   12   18 ar   
    28   13   14 ar   
    29   13   34 1    
    30   14   15 ar   
    31   14   35 1    
    32   15   16 ar   
    33   15   36 1    
    34   16   17 1    
    35   16   18 ar   
    36   18   37 1    
    37   19   38 1    
    38   20   21 1    
    39   20   23 1    
    40   20   39 1    
    41   21   22 1    
    42   21   40 1    
    43   21   41 1    
    44   22   23 1    
    45   22   42 1    
    46   22   43 1    
    47   23   44 1    
    48   23   45 1    
    49   24   25 2    
@<TRIPOS>SUBSTRUCTURE
     1 UNK         1 GROUP             0       ****    0 ROOT    
