@<TRIPOS>MOLECULE
CAT-13m
44   47    1
SMALL
USER_CHARGES


@<TRIPOS>ATOM
      1 C1         11.7748   -2.0496    1.1864 C.3       1 UNK         0.0000 
      2 N2         13.0810   -2.4046    0.6207 N.am      1 UNK         0.0000 
      3 C3         14.2515   -2.5116    1.2702 C.cat     1 UNK         0.0000 
      4 N4         14.4441   -2.3222    2.5814 N.pl3     1 UNK         0.0000 
      5 N5         15.2422   -2.8670    0.4444 N.pl3     1 UNK         0.0000 
      6 C6         14.7739   -3.0857   -0.9270 C.3       1 UNK         0.0000 
      7 C7         14.8997   -4.5948   -1.2714 C.ar      1 UNK         0.0000 
      8 C8         16.0472   -5.1640   -1.8459 C.ar      1 UNK         0.0000 
      9 N9         16.1698   -6.4826   -2.0817 N.ar      1 UNK         0.0000 
     10 C10        15.1536   -7.2493   -1.7242 C.ar      1 UNK         0.0000 
     11 N11        14.0437   -6.8476   -1.1288 N.ar      1 UNK         0.0000 
     12 C12        13.9102   -5.5340   -0.9211 C.ar      1 UNK         0.0000 
     13 C13        15.3786   -2.0452   -1.9004 C.ar      1 UNK         0.0000 
     14 C14        15.8325   -2.3836   -3.1970 C.ar      1 UNK         0.0000 
     15 C15        16.3422   -1.3953   -4.0510 C.ar      1 UNK         0.0000 
     16 C16        16.3043   -0.0420   -3.6752 C.ar      1 UNK         0.0000 
     17 C17        15.7978    0.3539   -2.4198 C.ar      1 UNK         0.0000 
     18 C18        15.5968    1.7919   -2.0984 C.ar      1 UNK         0.0000 
     19 C19        15.2949    2.7191   -3.1262 C.ar      1 UNK         0.0000 
     20 C20        14.9736    4.0603   -2.8365 C.ar      1 UNK         0.0000 
     21 C21        14.9642    4.5099   -1.5062 C.ar      1 UNK         0.0000 
     22 C22        15.3030    3.6222   -0.4730 C.ar      1 UNK         0.0000 
     23 Cl23       15.3087    4.1915    1.1559 Cl        1 UNK         0.0000 
     24 C24        15.6158    2.2792   -0.7695 C.ar      1 UNK         0.0000 
     25 C25        15.4019   -0.6710   -1.5264 C.ar      1 UNK         0.0000 
     26 C26        13.2877   -2.7178   -0.7536 C.2       1 UNK         0.0000 
     27 O27        12.3957   -2.7761   -1.6055 O.2       1 UNK         0.0000 
     28 H28        10.9783   -2.6474    0.7436 H         1 UNK         0.0000 
     29 H29        11.7566   -2.2173    2.2632 H         1 UNK         0.0000 
     30 H30        11.5613   -1.0002    0.9842 H         1 UNK         0.0000 
     31 H31        15.3896   -2.3984    2.9629 H         1 UNK         0.0000 
     32 H32        16.2251   -2.9096    0.7184 H         1 UNK         0.0000 
     33 H33        16.8880   -4.5572   -2.1237 H         1 UNK         0.0000 
     34 H34        15.2631   -8.3091   -1.8724 H         1 UNK         0.0000 
     35 H35        12.9970   -5.2634   -0.4146 H         1 UNK         0.0000 
     36 H36        15.7947   -3.3853   -3.5936 H         1 UNK         0.0000 
     37 H37        16.7239   -1.6738   -5.0224 H         1 UNK         0.0000 
     38 H38        16.6360    0.6965   -4.3901 H         1 UNK         0.0000 
     39 H39        15.2470    2.3932   -4.1556 H         1 UNK         0.0000 
     40 H40        14.7005    4.7394   -3.6311 H         1 UNK         0.0000 
     41 H41        14.6919    5.5292   -1.2778 H         1 UNK         0.0000 
     42 H42        15.8575    1.6173    0.0455 H         1 UNK         0.0000 
     43 H43        15.0174   -0.3786   -0.5614 H         1 UNK         0.0000 
     44 H44        13.7269   -2.0003    3.2305 H         1 UNK         0.0000 
@<TRIPOS>BOND
     1    1    2 1    
     2    1   28 1    
     3    1   29 1    
     4    1   30 1    
     5    2    3 1    
     6    2   26 am   BACKBONE|DICT|INTERRES
     7    3    4 ar   
     8    3    5 ar   
     9    4   31 1    
    10    4   44 1    
    11    5    6 1    
    12    5   32 1    
    13    6    7 1    
    14    6   13 1    
    15    6   26 1    
    16    7    8 ar   
    17    7   12 ar   
    18    8    9 ar   
    19    8   33 1    
    20    9   10 ar   
    21   10   11 ar   
    22   10   34 1    
    23   11   12 ar   
    24   12   35 1    
    25   13   14 ar   
    26   13   25 ar   
    27   14   15 ar   
    28   14   36 1    
    29   15   16 ar   
    30   15   37 1    
    31   16   17 ar   
    32   16   38 1    
    33   17   18 1    
    34   17   25 ar   
    35   18   19 ar   
    36   18   24 ar   
    37   19   20 ar   
    38   19   39 1    
    39   20   21 ar   
    40   20   40 1    
    41   21   22 ar   
    42   21   41 1    
    43   22   23 1    
    44   22   24 ar   
    45   24   42 1    
    46   25   43 1    
    47   26   27 2    
@<TRIPOS>SUBSTRUCTURE
     1 UNK         1 GROUP             0       ****    0 ROOT    
