@<TRIPOS>MOLECULE
CAT-13b
42   44    1
SMALL
USER_CHARGES


@<TRIPOS>ATOM
      1 C1         14.8880   -5.3200   -2.2411 C.3       1 UNK         0.0000 
      2 C2         15.5152   -4.5191   -1.0878 C.3       1 UNK         0.0000 
      3 C3         15.0250   -3.0580   -0.8408 C.3       1 UNK         0.0000 
      4 C4         15.5972   -1.9892   -1.7961 C.ar      1 UNK         0.0000 
      5 C5         16.2813   -2.3331   -2.9861 C.ar      1 UNK         0.0000 
      6 C6         16.6931   -1.3359   -3.8827 C.ar      1 UNK         0.0000 
      7 C7         16.4366    0.0163   -3.6011 C.ar      1 UNK         0.0000 
      8 C8         15.8215    0.4094   -2.3948 C.ar      1 UNK         0.0000 
      9 C9         15.5584    1.8393   -2.1031 C.ar      1 UNK         0.0000 
     10 C10        15.2599    2.7489   -3.1451 C.ar      1 UNK         0.0000 
     11 C11        14.9356    4.0932   -2.8723 C.ar      1 UNK         0.0000 
     12 C12        14.9160    4.5575   -1.5465 C.ar      1 UNK         0.0000 
     13 C13        15.2425    3.6816   -0.4989 C.ar      1 UNK         0.0000 
     14 Cl14       15.2357    4.2626    1.1255 Cl        1 UNK         0.0000 
     15 C15        15.5620    2.3374   -0.7787 C.ar      1 UNK         0.0000 
     16 C16        15.4202   -0.6110   -1.5012 C.ar      1 UNK         0.0000 
     17 N17        15.3485   -2.7407    0.5435 N.pl3     1 UNK         0.0000 
     18 C18        14.2748   -2.5004    1.2924 C.cat     1 UNK         0.0000 
     19 N19        14.3659   -2.2678    2.6058 N.pl3     1 UNK         0.0000 
     20 N20        13.1492   -2.5542    0.5669 N.am      1 UNK         0.0000 
     21 C21        11.7915   -2.2624    1.0450 C.3       1 UNK         0.0000 
     22 C22        13.4891   -2.9216   -0.7722 C.2       1 UNK         0.0000 
     23 O23        12.6678   -3.0625   -1.6834 O.2       1 UNK         0.0000 
     24 H24        14.9642   -4.8005   -3.1912 H         1 UNK         0.0000 
     25 H25        15.3880   -6.2814   -2.3613 H         1 UNK         0.0000 
     26 H26        13.8332   -5.5295   -2.0640 H         1 UNK         0.0000 
     27 H27        16.5958   -4.5023   -1.2260 H         1 UNK         0.0000 
     28 H28        15.3696   -5.1062   -0.1795 H         1 UNK         0.0000 
     29 H29        16.5020   -3.3529   -3.2560 H         1 UNK         0.0000 
     30 H30        17.1954   -1.6103   -4.8005 H         1 UNK         0.0000 
     31 H31        16.7286    0.7571   -4.3282 H         1 UNK         0.0000 
     32 H32        15.2342    2.4069   -4.1695 H         1 UNK         0.0000 
     33 H33        14.6762    4.7669   -3.6756 H         1 UNK         0.0000 
     34 H34        14.6486    5.5822   -1.3307 H         1 UNK         0.0000 
     35 H35        15.8089    1.6832    0.0405 H         1 UNK         0.0000 
     36 H36        14.9145   -0.3233   -0.5923 H         1 UNK         0.0000 
     37 H37        16.3102   -2.7378    0.8907 H         1 UNK         0.0000 
     38 H38        13.5848   -2.0116    3.2058 H         1 UNK         0.0000 
     39 H39        11.6537   -2.6250    2.0635 H         1 UNK         0.0000 
     40 H40        11.6291   -1.1849    1.0382 H         1 UNK         0.0000 
     41 H41        11.0342   -2.7257    0.4122 H         1 UNK         0.0000 
     42 H42        15.2856   -2.2732    3.0472 H         1 UNK         0.0000 
@<TRIPOS>BOND
     1    1    2 1    
     2    1   24 1    
     3    1   25 1    
     4    1   26 1    
     5    2    3 1    
     6    2   27 1    
     7    2   28 1    
     8    3    4 1    
     9    3   17 1    
    10    3   22 1    
    11    4    5 ar   
    12    4   16 ar   
    13    5    6 ar   
    14    5   29 1    
    15    6    7 ar   
    16    6   30 1    
    17    7    8 ar   
    18    7   31 1    
    19    8    9 1    
    20    8   16 ar   
    21    9   10 ar   
    22    9   15 ar   
    23   10   11 ar   
    24   10   32 1    
    25   11   12 ar   
    26   11   33 1    
    27   12   13 ar   
    28   12   34 1    
    29   13   14 1    
    30   13   15 ar   
    31   15   35 1    
    32   16   36 1    
    33   17   18 ar   
    34   17   37 1    
    35   18   19 ar   
    36   18   20 1    
    37   19   38 1    
    38   19   42 1    
    39   20   21 1    
    40   20   22 am   BACKBONE|DICT|INTERRES
    41   21   39 1    
    42   21   40 1    
    43   21   41 1    
    44   22   23 2    
@<TRIPOS>SUBSTRUCTURE
     1 UNK         1 GROUP             0       ****    0 ROOT    
