@<TRIPOS>MOLECULE
CAT-4a
46   49    1
SMALL
USER_CHARGES


@<TRIPOS>ATOM
      1 C1         11.7155   -2.2816    1.2489 C.3       1 UNK         0.0000 
      2 N2         13.0381   -2.6195    0.7079 N.am      1 UNK         0.0000 
      3 C3         14.2057   -2.6014    1.3666 C.cat     1 UNK         0.0000 
      4 N4         14.3786   -2.3437    2.6660 N.pl3     1 UNK         0.0000 
      5 N5         15.2286   -2.8858    0.5635 N.pl3     1 UNK         0.0000 
      6 C6         14.8076   -3.2129   -0.8000 C.3       1 UNK         0.0000 
      7 C7         15.1467   -4.6965   -1.0818 C.ar      1 UNK         0.0000 
      8 C8         16.3603   -5.2248   -0.5917 C.ar      1 UNK         0.0000 
      9 C9         16.7228   -6.5667   -0.7953 C.ar      1 UNK         0.0000 
     10 C10        15.8495   -7.4280   -1.4705 C.ar      1 UNK         0.0000 
     11 C11        14.6354   -6.9314   -1.9715 C.ar      1 UNK         0.0000 
     12 C12        14.2942   -5.5755   -1.7923 C.ar      1 UNK         0.0000 
     13 C13        15.3967   -2.2027   -1.8015 C.ar      1 UNK         0.0000 
     14 C14        15.9974   -2.6085   -3.0157 C.ar      1 UNK         0.0000 
     15 C15        16.4805   -1.6424   -3.9173 C.ar      1 UNK         0.0000 
     16 C16        16.3578   -0.2708   -3.6263 C.ar      1 UNK         0.0000 
     17 C17        15.7919    0.1718   -2.4127 C.ar      1 UNK         0.0000 
     18 C18        15.6399    1.6146   -2.0981 C.ar      1 UNK         0.0000 
     19 C19        15.4538    2.5838   -3.1120 C.ar      1 UNK         0.0000 
     20 C20        15.2099    3.9358   -2.7897 C.ar      1 UNK         0.0000 
     21 C21        15.1604    4.3485   -1.4470 C.ar      1 UNK         0.0000 
     22 C22        15.3892    3.4118   -0.4273 C.ar      1 UNK         0.0000 
     23 C23        15.6325    2.0660   -0.7583 C.ar      1 UNK         0.0000 
     24 C24        15.3278   -0.8153   -1.5134 C.ar      1 UNK         0.0000 
     25 C25        13.2876   -2.9675   -0.6530 C.2       1 UNK         0.0000 
     26 O26        12.4113   -3.0211   -1.5243 O.2       1 UNK         0.0000 
     27 H27        11.5248   -1.2189    1.1026 H         1 UNK         0.0000 
     28 H28        10.9265   -2.8405    0.7450 H         1 UNK         0.0000 
     29 H29        11.6590   -2.5032    2.3142 H         1 UNK         0.0000 
     30 H30        15.3225   -2.3533    3.0553 H         1 UNK         0.0000 
     31 H31        16.2073   -2.8876    0.8505 H         1 UNK         0.0000 
     32 H32        17.0256   -4.6002   -0.0248 H         1 UNK         0.0000 
     33 H33        17.6623   -6.9337   -0.4062 H         1 UNK         0.0000 
     34 H34        16.1115   -8.4656   -1.5844 H         1 UNK         0.0000 
     35 H35        13.9632   -7.5967   -2.4917 H         1 UNK         0.0000 
     36 H36        13.3568   -5.2350   -2.1940 H         1 UNK         0.0000 
     37 H37        16.0917   -3.6532   -3.2801 H         1 UNK         0.0000 
     38 H38        16.9372   -1.9475   -4.8486 H         1 UNK         0.0000 
     39 H39        16.7044    0.4465   -4.3531 H         1 UNK         0.0000 
     40 H40        15.4494    2.2872   -4.1504 H         1 UNK         0.0000 
     41 H41        15.0281    4.6607   -3.5680 H         1 UNK         0.0000 
     42 H42        14.9459    5.3789   -1.2001 H         1 UNK         0.0000 
     43 H43        15.3642    3.7204    0.6078 H         1 UNK         0.0000 
     44 H44        15.8121    1.3687    0.0406 H         1 UNK         0.0000 
     45 H45        14.8644   -0.4921   -0.5938 H         1 UNK         0.0000 
     46 H46        13.6372   -2.0531    3.3011 H         1 UNK         0.0000 
@<TRIPOS>BOND
     1    1    2 1    
     2    1   27 1    
     3    1   28 1    
     4    1   29 1    
     5    2    3 1    
     6    2   25 am   BACKBONE|DICT|INTERRES
     7    3    4 ar   
     8    3    5 ar   
     9    4   30 1    
    10    4   46 1    
    11    5    6 1    
    12    5   31 1    
    13    6    7 1    
    14    6   13 1    
    15    6   25 1    
    16    7    8 ar   
    17    7   12 ar   
    18    8    9 ar   
    19    8   32 1    
    20    9   10 ar   
    21    9   33 1    
    22   10   11 ar   
    23   10   34 1    
    24   11   12 ar   
    25   11   35 1    
    26   12   36 1    
    27   13   14 ar   
    28   13   24 ar   
    29   14   15 ar   
    30   14   37 1    
    31   15   16 ar   
    32   15   38 1    
    33   16   17 ar   
    34   16   39 1    
    35   17   18 1    
    36   17   24 ar   
    37   18   19 ar   
    38   18   23 ar   
    39   19   20 ar   
    40   19   40 1    
    41   20   21 ar   
    42   20   41 1    
    43   21   22 ar   
    44   21   42 1    
    45   22   23 ar   
    46   22   43 1    
    47   23   44 1    
    48   24   45 1    
    49   25   26 2    
@<TRIPOS>SUBSTRUCTURE
     1 UNK         1 GROUP             0       ****    0 ROOT    
