@<TRIPOS>MOLECULE
CAT-13j
45   48    1
SMALL
USER_CHARGES


@<TRIPOS>ATOM
      1 C1         11.6961   -2.2645    1.2649 C.3       1 UNK         0.0000 
      2 N2         13.0215   -2.5154    0.6888 N.am      1 UNK         0.0000 
      3 C3         14.1987   -2.5219    1.3336 C.cat     1 UNK         0.0000 
      4 N4         14.3751   -2.3542    2.6485 N.pl3     1 UNK         0.0000 
      5 N5         15.2238   -2.7253    0.5042 N.pl3     1 UNK         0.0000 
      6 C6         14.7664   -3.0195   -0.8502 C.3       1 UNK         0.0000 
      7 C7         15.3113   -1.9904   -1.8759 C.ar      1 UNK         0.0000 
      8 C8         15.6769   -2.3426   -3.1986 C.ar      1 UNK         0.0000 
      9 C9         16.1753   -1.3675   -4.0760 C.ar      1 UNK         0.0000 
     10 C10        16.1926   -0.0120   -3.7018 C.ar      1 UNK         0.0000 
     11 C11        15.7284    0.3995   -2.4340 C.ar      1 UNK         0.0000 
     12 C12        15.5348    1.8413   -2.1135 C.ar      1 UNK         0.0000 
     13 C13        15.2021    2.7617   -3.1388 C.ar      1 UNK         0.0000 
     14 C14        14.8789    4.1032   -2.8499 C.ar      1 UNK         0.0000 
     15 C15        14.8908    4.5603   -1.5223 C.ar      1 UNK         0.0000 
     16 C16        15.2551    3.6784   -0.4913 C.ar      1 UNK         0.0000 
     17 Cl17       15.2846    4.2505    1.1365 Cl        1 UNK         0.0000 
     18 C18        15.5764    2.3370   -0.7867 C.ar      1 UNK         0.0000 
     19 C19        15.3578   -0.6128   -1.5167 C.ar      1 UNK         0.0000 
     20 C20        15.0379   -4.5318   -1.0582 C.ar      1 UNK         0.0000 
     21 C21        16.1911   -4.9954   -1.7182 C.ar      1 UNK         0.0000 
     22 C22        16.4400   -6.3687   -1.8207 C.ar      1 UNK         0.0000 
     23 C23        15.5365   -7.2607   -1.2303 C.ar      1 UNK         0.0000 
     24 C24        14.4411   -6.7307   -0.5352 C.ar      1 UNK         0.0000 
     25 N25        14.2062   -5.4075   -0.4355 N.ar      1 UNK         0.0000 
     26 C26        13.2558   -2.7592   -0.6949 C.2       1 UNK         0.0000 
     27 O27        12.3797   -2.7353   -1.5715 O.2       1 UNK         0.0000 
     28 H28        11.6759   -2.5192    2.3233 H         1 UNK         0.0000 
     29 H29        11.4474   -1.2118    1.1456 H         1 UNK         0.0000 
     30 H30        10.9325   -2.8547    0.7588 H         1 UNK         0.0000 
     31 H31        15.3191   -2.3803    3.0344 H         1 UNK         0.0000 
     32 H32        16.1999   -2.8167    0.7852 H         1 UNK         0.0000 
     33 H33        15.6011   -3.3569   -3.5737 H         1 UNK         0.0000 
     34 H34        16.5117   -1.6644   -5.0572 H         1 UNK         0.0000 
     35 H35        16.5310    0.7127   -4.4277 H         1 UNK         0.0000 
     36 H36        15.1296    2.4285   -4.1639 H         1 UNK         0.0000 
     37 H37        14.5891    4.7792   -3.6409 H         1 UNK         0.0000 
     38 H38        14.6215    5.5821   -1.2918 H         1 UNK         0.0000 
     39 H39        15.8355    1.6817    0.0279 H         1 UNK         0.0000 
     40 H40        15.0131   -0.3137   -0.5390 H         1 UNK         0.0000 
     41 H41        16.8852   -4.2982   -2.1487 H         1 UNK         0.0000 
     42 H42        17.3214   -6.7175   -2.3297 H         1 UNK         0.0000 
     43 H43        15.6892   -8.3285   -1.2778 H         1 UNK         0.0000 
     44 H44        13.7478   -7.3825   -0.0239 H         1 UNK         0.0000 
     45 H45        13.6328   -2.0835    3.2913 H         1 UNK         0.0000 
@<TRIPOS>BOND
     1    1    2 1    
     2    1   28 1    
     3    1   29 1    
     4    1   30 1    
     5    2    3 1    
     6    2   26 am   BACKBONE|DICT|INTERRES
     7    3    4 ar   
     8    3    5 ar   
     9    4   31 1    
    10    4   45 1    
    11    5    6 1    
    12    5   32 1    
    13    6    7 1    
    14    6   20 1    
    15    6   26 1    
    16    7    8 ar   
    17    7   19 ar   
    18    8    9 ar   
    19    8   33 1    
    20    9   10 ar   
    21    9   34 1    
    22   10   11 ar   
    23   10   35 1    
    24   11   12 1    
    25   11   19 ar   
    26   12   13 ar   
    27   12   18 ar   
    28   13   14 ar   
    29   13   36 1    
    30   14   15 ar   
    31   14   37 1    
    32   15   16 ar   
    33   15   38 1    
    34   16   17 1    
    35   16   18 ar   
    36   18   39 1    
    37   19   40 1    
    38   20   21 ar   
    39   20   25 ar   
    40   21   22 ar   
    41   21   41 1    
    42   22   23 ar   
    43   22   42 1    
    44   23   24 ar   
    45   23   43 1    
    46   24   25 ar   
    47   24   44 1    
    48   26   27 2    
@<TRIPOS>SUBSTRUCTURE
     1 UNK         1 GROUP             0       ****    0 ROOT    
