@<TRIPOS>MOLECULE
CAT-17f
43   46    1
SMALL
USER_CHARGES


@<TRIPOS>ATOM
      1 C1         11.7867   -2.3695    1.0808 C.3       1 UNK         0.0000 
      2 N2         13.1391   -2.6647    0.5894 N.am      1 UNK         0.0000 
      3 C3         14.2724   -2.5929    1.3025 C.cat     1 UNK         0.0000 
      4 N4         14.3735   -2.3189    2.6079 N.pl3     1 UNK         0.0000 
      5 N5         15.3400   -2.8503    0.5494 N.pl3     1 UNK         0.0000 
      6 C6         15.0019   -3.1745   -0.8288 C.3       1 UNK         0.0000 
      7 C7         15.5499   -2.1167   -1.8053 C.ar      1 UNK         0.0000 
      8 C8         16.1751   -2.4939   -3.0176 C.ar      1 UNK         0.0000 
      9 C9         16.6123   -1.5162   -3.9228 C.ar      1 UNK         0.0000 
     10 C10        16.4089   -0.1561   -3.6430 C.ar      1 UNK         0.0000 
     11 C11        15.8123    0.2668   -2.4363 C.ar      1 UNK         0.0000 
     12 C12        15.5764    1.7076   -2.1750 C.ar      1 UNK         0.0000 
     13 C13        15.3708    2.6232   -3.2325 C.ar      1 UNK         0.0000 
     14 N14        15.0914    3.9313   -3.0640 N.ar      1 UNK         0.0000 
     15 C15        15.0096    4.4072   -1.8089 C.ar      1 UNK         0.0000 
     16 C16        15.2273    3.6080   -0.6782 C.ar      1 UNK         0.0000 
     17 C17        15.1482    4.1902    0.6471 C.1       1 UNK         0.0000 
     18 N18        15.0876    4.6561    1.7026 N.1       1 UNK         0.0000 
     19 C19        15.5205    2.2442   -0.8684 C.ar      1 UNK         0.0000 
     20 C20        15.4068   -0.7330   -1.5195 C.ar      1 UNK         0.0000 
     21 C21        15.5580   -4.5843   -1.0987 C.3       1 UNK         0.0000 
     22 C22        14.8986   -5.8590   -0.6073 C.3       1 UNK         0.0000 
     23 C23        14.9623   -5.5654   -2.0855 C.3       1 UNK         0.0000 
     24 C24        13.4651   -3.0501   -0.7487 C.2       1 UNK         0.0000 
     25 O25        12.6345   -3.2045   -1.6492 O.2       1 UNK         0.0000 
     26 H26        11.6499   -2.7584    2.0897 H         1 UNK         0.0000 
     27 H27        11.6364   -1.2905    1.1052 H         1 UNK         0.0000 
     28 H28        11.0202   -2.8063    0.4400 H         1 UNK         0.0000 
     29 H29        13.5959   -2.0527    3.2086 H         1 UNK         0.0000 
     30 H30        16.3057   -2.8324    0.8841 H         1 UNK         0.0000 
     31 H31        16.3244   -3.5281   -3.2917 H         1 UNK         0.0000 
     32 H32        17.0863   -1.8073   -4.8504 H         1 UNK         0.0000 
     33 H33        16.7167    0.5624   -4.3857 H         1 UNK         0.0000 
     34 H34        15.3884    2.2933   -4.2597 H         1 UNK         0.0000 
     35 H35        14.7672    5.4560   -1.7113 H         1 UNK         0.0000 
     36 H36        15.7081    1.6131   -0.0155 H         1 UNK         0.0000 
     37 H37        14.9272   -0.4331   -0.5998 H         1 UNK         0.0000 
     38 H38        16.6440   -4.6020   -1.0415 H         1 UNK         0.0000 
     39 H39        15.5493   -6.6459   -0.2306 H         1 UNK         0.0000 
     40 H40        13.9221   -5.8027   -0.1306 H         1 UNK         0.0000 
     41 H41        14.0276   -5.3112   -2.5720 H         1 UNK         0.0000 
     42 H42        15.6526   -6.1497   -2.6918 H         1 UNK         0.0000 
     43 H43        15.2970   -2.3098    3.0423 H         1 UNK         0.0000 
@<TRIPOS>BOND
     1    1    2 1    
     2    1   26 1    
     3    1   27 1    
     4    1   28 1    
     5    2    3 1    
     6    2   24 am   BACKBONE|DICT|INTERRES
     7    3    4 ar   
     8    3    5 ar   
     9    4   29 1    
    10    4   43 1    
    11    5    6 1    
    12    5   30 1    
    13    6    7 1    
    14    6   21 1    
    15    6   24 1    
    16    7    8 ar   
    17    7   20 ar   
    18    8    9 ar   
    19    8   31 1    
    20    9   10 ar   
    21    9   32 1    
    22   10   11 ar   
    23   10   33 1    
    24   11   12 1    
    25   11   20 ar   
    26   12   13 ar   
    27   12   19 ar   
    28   13   14 ar   
    29   13   34 1    
    30   14   15 ar   
    31   15   16 ar   
    32   15   35 1    
    33   16   17 1    
    34   16   19 ar   
    35   17   18 3    
    36   19   36 1    
    37   20   37 1    
    38   21   22 1    
    39   21   23 1    
    40   21   38 1    
    41   22   23 1    
    42   22   39 1    
    43   22   40 1    
    44   23   41 1    
    45   23   42 1    
    46   24   25 2    
@<TRIPOS>SUBSTRUCTURE
     1 UNK         1 GROUP             0       ****    0 ROOT    
