@<TRIPOS>MOLECULE
32
42   45    1
SMALL
USER_CHARGES


@<TRIPOS>ATOM
      1 C1         -6.3767   12.3649  -12.0150 C.ar      1 UNK         0.0000 
      2 C2         -6.5300   11.8201  -10.7355 C.ar      1 UNK         0.0000 
      3 C3         -7.7235   10.5758  -13.0283 C.ar      1 UNK         0.0000 
      4 C4         -6.9848   11.7731  -13.1297 C.ar      1 UNK         0.0000 
      5 C5         -7.8178   10.0121  -11.7526 C.ar      1 UNK         0.0000 
      6 C6         -7.2522   10.6205  -10.6098 C.ar      1 UNK         0.0000 
      7 C7         -7.6101    9.7439   -9.5117 C.ar      1 UNK         0.0000 
      8 N8         -8.2784    8.7249   -9.9778 N.2       1 UNK         0.0000 
      9 N9         -8.4134    8.8570  -11.2978 N.pl3     1 UNK         0.0000 
     10 C10        -7.3337    9.8935   -8.0288 C.3       1 UNK         0.0000 
     11 N11        -4.4165   13.6746  -11.4876 N.am      1 UNK         0.0000 
     12 C12        -5.5534   13.6276  -12.1919 C.2       1 UNK         0.0000 
     13 O13        -5.9234   14.5178  -12.9405 O.2       1 UNK         0.0000 
     14 C14        -5.9640   10.4853   -7.7356 C.ar      1 UNK         0.0000 
     15 C15        -4.8116    9.7640   -8.0536 C.ar      1 UNK         0.0000 
     16 C16        -3.5500   10.3127   -7.8058 C.ar      1 UNK         0.0000 
     17 C17        -3.4411   11.5873   -7.2364 C.ar      1 UNK         0.0000 
     18 C18        -4.5925   12.3023   -6.9174 C.ar      1 UNK         0.0000 
     19 C19        -5.8510   11.7510   -7.1622 C.ar      1 UNK         0.0000 
     20 C20        -2.0968   12.1763   -6.9669 C.ar      1 UNK         0.0000 
     21 C21        -1.7702   13.4221   -6.4317 C.ar      1 UNK         0.0000 
     22 N22        -0.4283   13.4864   -6.3849 N.pl3     1 UNK         0.0000 
     23 N23         0.1730   12.4042   -6.8287 N.2       1 UNK         0.0000 
     24 C24        -0.8019   11.5974   -7.2024 C.ar      1 UNK         0.0000 
     25 C25         0.3914   14.5951   -5.9029 C.3       1 UNK         0.0000 
     26 H26        -6.0971   12.2907   -9.8695 H         1 UNK         0.0000 
     27 H27        -8.1793   10.1210  -13.8973 H         1 UNK         0.0000 
     28 H28        -6.8799   12.2200  -14.1007 H         1 UNK         0.0000 
     29 H29        -8.9071    8.1535  -11.8388 H         1 UNK         0.0000 
     30 H30        -8.1037   10.5390   -7.5949 H         1 UNK         0.0000 
     31 H31        -7.4435    8.9258   -7.5263 H         1 UNK         0.0000 
     32 H32        -3.8100   14.4821  -11.5579 H         1 UNK         0.0000 
     33 H33        -4.1203   12.8861  -10.9327 H         1 UNK         0.0000 
     34 H34        -4.8859    8.7811   -8.4956 H         1 UNK         0.0000 
     35 H35        -2.6665    9.7473   -8.0499 H         1 UNK         0.0000 
     36 H36        -4.5168   13.2894   -6.4781 H         1 UNK         0.0000 
     37 H37        -6.7359   12.3175   -6.9096 H         1 UNK         0.0000 
     38 H38        -2.3834   14.2452   -6.0920 H         1 UNK         0.0000 
     39 H39        -0.6064   10.6335   -7.6221 H         1 UNK         0.0000 
     40 H40        -0.2430   15.4167   -5.5635 H         1 UNK         0.0000 
     41 H41         1.0295   14.9490   -6.7075 H         1 UNK         0.0000 
     42 H42         1.0108   14.2566   -5.0798 H         1 UNK         0.0000 
@<TRIPOS>BOND
     1    1    2 ar   
     2    1    4 ar   
     3    1   12 1    
     4    2    6 ar   
     5    2   26 1    
     6    3    4 ar   
     7    3    5 ar   
     8    3   27 1    
     9    4   28 1    
    10    5    6 ar   
    11    5    9 ar   
    12    6    7 ar   
    13    7    8 ar   
    14    7   10 1    
    15    8    9 ar   
    16    9   29 1    
    17   10   14 1    
    18   10   30 1    
    19   10   31 1    
    20   11   12 am   BACKBONE|DICT|INTERRES
    21   11   32 1    
    22   11   33 1    
    23   12   13 2    
    24   14   15 ar   
    25   14   19 ar   
    26   15   16 ar   
    27   15   34 1    
    28   16   17 ar   
    29   16   35 1    
    30   17   18 ar   
    31   17   20 1    
    32   18   19 ar   
    33   18   36 1    
    34   19   37 1    
    35   20   21 ar   
    36   20   24 ar   
    37   21   22 ar   
    38   21   38 1    
    39   22   23 ar   
    40   22   25 1    
    41   23   24 ar   
    42   24   39 1    
    43   25   40 1    
    44   25   41 1    
    45   25   42 1    
@<TRIPOS>SUBSTRUCTURE
     1 UNK         1 GROUP             0       ****    0 ROOT    
