@<TRIPOS>MOLECULE
37
52   56    1
SMALL
USER_CHARGES


@<TRIPOS>ATOM
      1 C1         -6.3714   12.3591  -12.0053 C.ar      1 UNK         0.0000 
      2 C2         -6.5147   11.8055  -10.7304 C.ar      1 UNK         0.0000 
      3 C3         -7.7273   10.5756  -13.0301 C.ar      1 UNK         0.0000 
      4 C4         -6.9920   11.7699  -13.1223 C.ar      1 UNK         0.0000 
      5 C5         -7.8210   10.0087  -11.7569 C.ar      1 UNK         0.0000 
      6 C6         -7.2407   10.6185  -10.5997 C.ar      1 UNK         0.0000 
      7 C7         -7.6132    9.7471   -9.5123 C.ar      1 UNK         0.0000 
      8 N8         -8.2794    8.7320   -9.9893 N.2       1 UNK         0.0000 
      9 N9         -8.4144    8.8594  -11.3005 N.pl3     1 UNK         0.0000 
     10 C10        -7.3370    9.8875   -8.0251 C.3       1 UNK         0.0000 
     11 N11        -4.3570   13.7205  -11.5014 N.am      1 UNK         0.0000 
     12 C12        -5.5485   13.6383  -12.1900 C.2       1 UNK         0.0000 
     13 O13        -5.9462   14.5274  -12.9449 O.2       1 UNK         0.0000 
     14 C14        -5.9602   10.4847   -7.7357 C.ar      1 UNK         0.0000 
     15 C15        -4.8090    9.7649   -8.0550 C.ar      1 UNK         0.0000 
     16 C16        -3.5517   10.3138   -7.8050 C.ar      1 UNK         0.0000 
     17 C17        -3.4444   11.5886   -7.2367 C.ar      1 UNK         0.0000 
     18 C18        -4.5954   12.3038   -6.9144 C.ar      1 UNK         0.0000 
     19 C19        -5.8508   11.7543   -7.1602 C.ar      1 UNK         0.0000 
     20 C20        -2.1010   12.1799   -6.9735 C.ar      1 UNK         0.0000 
     21 C21        -1.7694   13.4361   -6.4722 C.ar      1 UNK         0.0000 
     22 N22        -0.4342   13.4933   -6.4118 N.pl3     1 UNK         0.0000 
     23 N23         0.1686   12.4094   -6.8087 N.2       1 UNK         0.0000 
     24 C24        -0.8030   11.5907   -7.1765 C.ar      1 UNK         0.0000 
     25 C25         0.3824   14.6122   -5.9578 C.3       1 UNK         0.0000 
     26 C26        -3.5015   14.9079  -11.6138 C.3       1 UNK         0.0000 
     27 C27        -2.1980   14.4648  -10.9240 C.3       1 UNK         0.0000 
     28 C28        -2.2178   12.9422  -10.9897 C.3       1 UNK         0.0000 
     29 C29        -3.7152   12.5763  -10.8194 C.3       1 UNK         0.0000 
     30 H30        -6.0843   12.2887   -9.8671 H         1 UNK         0.0000 
     31 H31        -8.1823   10.1184  -13.9027 H         1 UNK         0.0000 
     32 H32        -6.8710   12.2321  -14.0913 H         1 UNK         0.0000 
     33 H33        -8.9081    8.1519  -11.8353 H         1 UNK         0.0000 
     34 H34        -8.1025   10.5369   -7.5942 H         1 UNK         0.0000 
     35 H35        -7.4387    8.9228   -7.5261 H         1 UNK         0.0000 
     36 H36        -4.8924    8.7824   -8.5002 H         1 UNK         0.0000 
     37 H37        -2.6608    9.7523   -8.0520 H         1 UNK         0.0000 
     38 H38        -4.5130   13.2841   -6.4735 H         1 UNK         0.0000 
     39 H39        -6.7376   12.3146   -6.9110 H         1 UNK         0.0000 
     40 H40        -2.3680   14.2762   -6.1614 H         1 UNK         0.0000 
     41 H41        -0.5997   10.5977   -7.5606 H         1 UNK         0.0000 
     42 H42         1.0415   14.9434   -6.7630 H         1 UNK         0.0000 
     43 H43         1.0029   14.3010   -5.1158 H         1 UNK         0.0000 
     44 H44        -0.2397   15.4500   -5.6469 H         1 UNK         0.0000 
     45 H45        -3.3040   15.1510  -12.6593 H         1 UNK         0.0000 
     46 H46        -3.9447   15.7573  -11.0941 H         1 UNK         0.0000 
     47 H47        -2.2028   14.7688   -9.8743 H         1 UNK         0.0000 
     48 H48        -1.3076   14.9095  -11.3795 H         1 UNK         0.0000 
     49 H49        -1.8316   12.6262  -11.9647 H         1 UNK         0.0000 
     50 H50        -1.5512   12.4812  -10.2522 H         1 UNK         0.0000 
     51 H51        -3.9417   12.6132   -9.7555 H         1 UNK         0.0000 
     52 H52        -3.9032   11.5968  -11.2722 H         1 UNK         0.0000 
@<TRIPOS>BOND
     1    1    2 ar   
     2    1    4 ar   
     3    1   12 1    
     4    2    6 ar   
     5    2   30 1    
     6    3    4 ar   
     7    3    5 ar   
     8    3   31 1    
     9    4   32 1    
    10    5    6 ar   
    11    5    9 ar   
    12    6    7 ar   
    13    7    8 ar   
    14    7   10 1    
    15    8    9 ar   
    16    9   33 1    
    17   10   14 1    
    18   10   34 1    
    19   10   35 1    
    20   11   12 am   BACKBONE|DICT|INTERRES
    21   11   26 1    
    22   11   29 1    
    23   12   13 2    
    24   14   15 ar   
    25   14   19 ar   
    26   15   16 ar   
    27   15   36 1    
    28   16   17 ar   
    29   16   37 1    
    30   17   18 ar   
    31   17   20 1    
    32   18   19 ar   
    33   18   38 1    
    34   19   39 1    
    35   20   21 ar   
    36   20   24 ar   
    37   21   22 ar   
    38   21   40 1    
    39   22   23 ar   
    40   22   25 1    
    41   23   24 ar   
    42   24   41 1    
    43   25   42 1    
    44   25   43 1    
    45   25   44 1    
    46   26   27 1    
    47   26   45 1    
    48   26   46 1    
    49   27   28 1    
    50   27   47 1    
    51   27   48 1    
    52   28   29 1    
    53   28   49 1    
    54   28   50 1    
    55   29   51 1    
    56   29   52 1    
@<TRIPOS>SUBSTRUCTURE
     1 UNK         1 GROUP             0       ****    0 ROOT    
