
                    3D
 Schrodinger Suite 2020-3.
 47 50  0  0  1  0            999 V2000
   -2.2090   12.9420  -10.9700 C   0  0  1  0  0  0
   -2.1900   14.4670  -10.9420 C   0  0  0  0  0  0
   -3.6990   12.5880  -10.8380 C   0  0  0  0  0  0
   -1.6830   12.4740  -12.1800 O   0  0  0  0  0  0
   -3.5110   14.9140  -11.6090 C   0  0  0  0  0  0
   -4.3440   13.7200  -11.5240 N   0  0  3  0  0  0
   -6.3530   12.3600  -12.0340 C   0  0  3  0  0  0
   -6.9730   11.7560  -13.1370 C   0  0  3  0  0  0
   -7.7100   10.5630  -13.0340 C   0  0  0  0  0  0
   -6.5000   11.8060  -10.7490 C   0  0  0  0  0  0
   -6.8510   12.3070  -14.3820 O   0  0  0  0  0  0
   -5.5380   13.6380  -12.2000 C   0  0  3  0  0  0
   -5.9500   14.5440  -12.9180 O   0  0  0  0  0  0
   -7.2310   10.6160  -10.6130 C   0  0  3  0  0  0
   -7.8080   10.0110  -11.7520 C   0  0  3  0  0  0
   -8.4200    8.8670  -11.2880 N   0  0  3  0  0  0
   -8.2850    8.7400   -9.9760 N   0  0  0  0  0  0
   -7.6050    9.7470   -9.5140 C   0  0  3  0  0  0
   -7.3260    9.8950   -8.0240 C   0  0  0  0  0  0
   -5.9600   10.4800   -7.7350 C   0  0  3  0  0  0
   -4.8080    9.7600   -8.0490 C   0  0  0  0  0  0
   -3.4360   11.5810   -7.2420 C   0  0  0  0  0  0
   -4.5830   12.3060   -6.9230 C   0  0  3  0  0  0
   -3.5480   10.3110   -7.8020 C   0  0  0  0  0  0
   -5.8470   11.7540   -7.1670 C   0  0  0  0  0  0
   -4.4650   13.6950   -6.3240 C   0  0  0  0  0  0
   -1.6130   12.4840  -10.1620 H   0  0  0  0  0  0
   -2.1550   14.8180   -9.9250 H   0  0  0  0  0  0
   -1.3160   14.8980  -11.4570 H   0  0  0  0  0  0
   -3.9460   12.5680   -9.7740 H   0  0  0  0  0  0
   -3.8740   11.6020  -11.3000 H   0  0  0  0  0  0
   -0.8320   12.8970  -12.3310 H   0  0  0  0  0  0
   -3.3140   15.2100  -12.6380 H   0  0  0  0  0  0
   -3.9410   15.7450  -11.0420 H   0  0  0  0  0  0
   -8.1760   10.1010  -13.8960 H   0  0  0  0  0  0
   -6.0590   12.2790   -9.8760 H   0  0  0  0  0  0
   -7.3830   11.8570  -15.0460 H   0  0  0  0  0  0
   -8.9260    8.1740  -11.8310 H   0  0  0  0  0  0
   -8.0950   10.5280   -7.5800 H   0  0  0  0  0  0
   -7.4230    8.9160   -7.5190 H   0  0  0  0  0  0
   -4.8830    8.7770   -8.4900 H   0  0  0  0  0  0
   -2.4580   12.0020   -7.0530 H   0  0  0  0  0  0
   -2.6530    9.7490   -8.0470 H   0  0  0  0  0  0
   -6.7370   12.3190   -6.9230 H   0  0  0  0  0  0
   -3.5360   14.1750   -6.6300 H   0  0  0  0  0  0
   -4.5030   13.6560   -5.2330 H   0  0  0  0  0  0
   -5.2730   14.3300   -6.6810 H   0  0  0  0  0  0
  1  2  1  0  0  0
  1  3  1  0  0  0
  1  4  1  0  0  0
  1 27  1  0  0  0
  2  5  1  0  0  0
  2 28  1  0  0  0
  2 29  1  0  0  0
  3  6  1  0  0  0
  3 30  1  0  0  0
  3 31  1  0  0  0
  4 32  1  0  0  0
  5  6  1  0  0  0
  5 33  1  0  0  0
  5 34  1  0  0  0
  6 12  1  0  0  0
  7  8  1  0  0  0
  7 10  1  0  0  0
  7 12  1  0  0  0
  8  9  1  0  0  0
  8 11  1  0  0  0
  9 15  1  0  0  0
  9 35  1  0  0  0
 10 14  1  0  0  0
 10 36  1  0  0  0
 11 37  1  0  0  0
 12 13  1  0  0  0
 14 15  1  0  0  0
 14 18  1  0  0  0
 15 16  1  0  0  0
 16 17  1  0  0  0
 16 38  1  0  0  0
 17 18  1  0  0  0
 18 19  1  0  0  0
 19 20  1  0  0  0
 19 39  1  0  0  0
 19 40  1  0  0  0
 20 21  1  0  0  0
 20 25  1  0  0  0
 21 24  1  0  0  0
 21 41  1  0  0  0
 22 23  1  0  0  0
 22 24  1  0  0  0
 22 42  1  0  0  0
 23 25  1  0  0  0
 23 26  1  0  0  0
 24 43  1  0  0  0
 25 44  1  0  0  0
 26 45  1  0  0  0
 26 46  1  0  0  0
 26 47  1  0  0  0
M  END
> <s_pdb_PDB_TITLE>
MX MODEL

> <i_pdb_PDB_Model>
1

> <s_pdb_PDB_format_version>
3.0

$$$$
