@<TRIPOS>MOLECULE
27
53   56    1
SMALL
USER_CHARGES


@<TRIPOS>ATOM
      1 C1         -6.3855   12.3606  -12.0031 C.ar      1 UNK         0.0000 
      2 C2         -6.5214   11.8004  -10.7171 C.ar      1 UNK         0.0000 
      3 C3         -7.6991   10.5797  -13.0384 C.ar      1 UNK         0.0000 
      4 C4         -6.9626   11.7779  -13.1031 C.ar      1 UNK         0.0000 
      5 C5         -7.8238   10.0198  -11.7523 C.ar      1 UNK         0.0000 
      6 C6         -7.2557   10.6213  -10.5956 C.ar      1 UNK         0.0000 
      7 C7         -7.6268    9.7501   -9.5073 C.ar      1 UNK         0.0000 
      8 N8         -8.3057    8.7491   -9.9816 N.2       1 UNK         0.0000 
      9 N9         -8.4330    8.8776  -11.2917 N.pl3     1 UNK         0.0000 
     10 C10        -7.3352    9.8817   -8.0196 C.3       1 UNK         0.0000 
     11 N11        -5.6205   13.5372  -12.2095 N.pl3     1 UNK         0.0000 
     12 C12        -5.9727   10.4835   -7.7324 C.ar      1 UNK         0.0000 
     13 C13        -5.8611   11.7523   -7.1657 C.ar      1 UNK         0.0000 
     14 C14        -4.5946   12.2988   -6.9068 C.ar      1 UNK         0.0000 
     15 C15        -3.4432   11.5806   -7.2147 C.ar      1 UNK         0.0000 
     16 C16        -3.5570   10.3109   -7.7899 C.ar      1 UNK         0.0000 
     17 C17        -4.8253    9.7663   -8.0483 C.ar      1 UNK         0.0000 
     18 C18        -2.0926   12.1556   -6.9444 C.ar      1 UNK         0.0000 
     19 C19        -1.7338   13.4204   -6.4594 C.ar      1 UNK         0.0000 
     20 N20        -0.4064   13.4584   -6.4114 N.pl3     1 UNK         0.0000 
     21 N21         0.1793   12.3493   -6.7865 N.2       1 UNK         0.0000 
     22 C22        -0.7954   11.5387   -7.1512 C.ar      1 UNK         0.0000 
     23 C23         0.4205   14.5767   -6.0073 C.3       1 UNK         0.0000 
     24 C24        -4.6894   13.8945  -11.1046 C.3       1 UNK         0.0000 
     25 C25        -3.7822   15.1171  -11.3990 C.3       1 UNK         0.0000 
     26 N26        -2.3310   14.9579  -11.2532 N.am      1 UNK         0.0000 
     27 C27        -1.8099   14.4326  -10.1320 C.2       1 UNK         0.0000 
     28 O28        -2.5019   14.0442   -9.2076 O.2       1 UNK         0.0000 
     29 C29        -0.2869   14.3494  -10.0364 C.3       1 UNK         0.0000 
     30 H30        -6.0445   12.2494   -9.8378 H         1 UNK         0.0000 
     31 H31        -8.1252   10.1075  -13.9125 H         1 UNK         0.0000 
     32 H32        -6.8195   12.2403  -14.0555 H         1 UNK         0.0000 
     33 H33        -8.9253    8.1691  -11.8449 H         1 UNK         0.0000 
     34 H34        -8.0887   10.5401   -7.5861 H         1 UNK         0.0000 
     35 H35        -7.4260    8.9087   -7.5002 H         1 UNK         0.0000 
     36 H36        -5.3500   13.7423  -13.1711 H         1 UNK         0.0000 
     37 H37        -6.7538   12.3208   -6.9277 H         1 UNK         0.0000 
     38 H38        -4.5110   13.2853   -6.4615 H         1 UNK         0.0000 
     39 H39        -2.6704    9.7539   -8.0335 H         1 UNK         0.0000 
     40 H40        -4.8995    8.7870   -8.4986 H         1 UNK         0.0000 
     41 H41        -2.3188   14.2725   -6.1705 H         1 UNK         0.0000 
     42 H42        -0.5952   10.5614   -7.5429 H         1 UNK         0.0000 
     43 H43        -0.1976   15.4335   -5.7330 H         1 UNK         0.0000 
     44 H44         1.0772   14.8589   -6.8237 H         1 UNK         0.0000 
     45 H45         1.0239   14.2765   -5.1673 H         1 UNK         0.0000 
     46 H46        -4.0839   13.0222  -10.9241 H         1 UNK         0.0000 
     47 H47        -5.1507   14.0138  -10.1183 H         1 UNK         0.0000 
     48 H48        -4.1427   15.9632  -10.8055 H         1 UNK         0.0000 
     49 H49        -3.9117   15.4187  -12.3919 H         1 UNK         0.0000 
     50 H50        -1.7181   15.3243  -11.9869 H         1 UNK         0.0000 
     51 H51         0.1612   14.8056  -10.9074 H         1 UNK         0.0000 
     52 H52         0.0542   13.3103   -9.9607 H         1 UNK         0.0000 
     53 H53         0.0768   14.8908   -9.1541 H         1 UNK         0.0000 
@<TRIPOS>BOND
     1    1    2 ar   
     2    1    4 ar   
     3    1   11 1    
     4    2    6 ar   
     5    2   30 1    
     6    3    4 ar   
     7    3    5 ar   
     8    3   31 1    
     9    4   32 1    
    10    5    6 ar   
    11    5    9 ar   
    12    6    7 ar   
    13    7    8 ar   
    14    7   10 1    
    15    8    9 ar   
    16    9   33 1    
    17   10   12 1    
    18   10   34 1    
    19   10   35 1    
    20   11   24 1    
    21   11   36 1    
    22   12   13 ar   
    23   12   17 ar   
    24   13   14 ar   
    25   13   37 1    
    26   14   15 ar   
    27   14   38 1    
    28   15   16 ar   
    29   15   18 1    
    30   16   17 ar   
    31   16   39 1    
    32   17   40 1    
    33   18   19 ar   
    34   18   22 ar   
    35   19   20 ar   
    36   19   41 1    
    37   20   21 ar   
    38   20   23 1    
    39   21   22 ar   
    40   22   42 1    
    41   23   43 1    
    42   23   44 1    
    43   23   45 1    
    44   24   25 1    
    45   24   46 1    
    46   24   47 1    
    47   25   26 1    
    48   25   48 1    
    49   25   49 1    
    50   26   27 am   BACKBONE|DICT|INTERRES
    51   26   50 1    
    52   27   28 2    
    53   27   29 1    
    54   29   51 1    
    55   29   52 1    
    56   29   53 1    
@<TRIPOS>SUBSTRUCTURE
     1 UNK         1 GROUP             0       ****    0 ROOT    
