@<TRIPOS>MOLECULE
42
49   53    1
SMALL
USER_CHARGES


@<TRIPOS>ATOM
      1 C1         -6.3691   12.3596  -12.0090 C.ar      1 UNK         0.0000 
      2 C2         -6.5082   11.8040  -10.7325 C.ar      1 UNK         0.0000 
      3 C3         -7.7289   10.5800  -13.0272 C.ar      1 UNK         0.0000 
      4 C4         -6.9931   11.7723  -13.1223 C.ar      1 UNK         0.0000 
      5 C5         -7.8208   10.0120  -11.7545 C.ar      1 UNK         0.0000 
      6 C6         -7.2366   10.6190  -10.6002 C.ar      1 UNK         0.0000 
      7 C7         -7.6071    9.7463   -9.5106 C.ar      1 UNK         0.0000 
      8 N8         -8.2820    8.7349   -9.9857 N.2       1 UNK         0.0000 
      9 N9         -8.4162    8.8630  -11.2985 N.pl3     1 UNK         0.0000 
     10 C10        -7.3216    9.8824   -8.0245 C.3       1 UNK         0.0000 
     11 N11        -4.3612   13.7214  -11.5083 N.am      1 UNK         0.0000 
     12 C12        -5.5493   13.6373  -12.1980 C.2       1 UNK         0.0000 
     13 O13        -5.9470   14.5254  -12.9531 O.2       1 UNK         0.0000 
     14 C14        -5.9509   10.4995   -7.7283 C.ar      1 UNK         0.0000 
     15 C15        -5.8798   11.7709   -7.1545 C.ar      1 UNK         0.0000 
     16 C16        -4.6121   12.3149   -6.9130 C.ar      1 UNK         0.0000 
     17 C17        -3.4406   11.5618   -7.2441 C.ar      1 UNK         0.0000 
     18 C18        -3.5052   10.2836   -7.8087 C.ar      1 UNK         0.0000 
     19 C19        -4.7939    9.7786   -8.0440 C.ar      1 UNK         0.0000 
     20 C20        -4.0930   13.5444   -6.3685 C.ar      1 UNK         0.0000 
     21 N21        -2.7888   13.5284   -6.3764 N.2       1 UNK         0.0000 
     22 N22        -2.3823   12.3688   -6.8823 N.pl3     1 UNK         0.0000 
     23 C23        -0.9528   12.1034   -6.9863 C.3       1 UNK         0.0000 
     24 C24        -3.7146   12.5761  -10.8355 C.3       1 UNK         0.0000 
     25 C25        -2.2074   12.9376  -10.9559 C.3       1 UNK         0.0000 
     26 C26        -2.1889   14.4652  -10.9572 C.3       1 UNK         0.0000 
     27 C27        -3.5166   14.9141  -11.6000 C.3       1 UNK         0.0000 
     28 O28        -1.6730   12.4527  -12.1791 O.3       1 UNK         0.0000 
     29 H29        -6.0709   12.2831   -9.8701 H         1 UNK         0.0000 
     30 H30        -8.1905   10.1280  -13.8946 H         1 UNK         0.0000 
     31 H31        -6.8760   12.2352  -14.0903 H         1 UNK         0.0000 
     32 H32        -8.9104    8.1559  -11.8349 H         1 UNK         0.0000 
     33 H33        -8.0978   10.5174   -7.5878 H         1 UNK         0.0000 
     34 H34        -7.4227    8.9225   -7.5162 H         1 UNK         0.0000 
     35 H35        -6.7759   12.3187   -6.9121 H         1 UNK         0.0000 
     36 H36        -2.6149    9.7115   -8.0486 H         1 UNK         0.0000 
     37 H37        -4.9008    8.7994   -8.4826 H         1 UNK         0.0000 
     38 H38        -4.6404   14.3931   -5.9911 H         1 UNK         0.0000 
     39 H39        -0.3733   12.9511   -6.6100 H         1 UNK         0.0000 
     40 H40        -0.6843   11.9368   -8.0290 H         1 UNK         0.0000 
     41 H41        -0.7041   11.2248   -6.3903 H         1 UNK         0.0000 
     42 H42        -3.9481   12.5593   -9.7730 H         1 UNK         0.0000 
     43 H43        -3.8897   11.6058  -11.3143 H         1 UNK         0.0000 
     44 H44        -1.6065   12.4889  -10.1604 H         1 UNK         0.0000 
     45 H45        -2.1357   14.8163   -9.9239 H         1 UNK         0.0000 
     46 H46        -1.3181   14.8871  -11.4678 H         1 UNK         0.0000 
     47 H47        -3.3218   15.2079  -12.6331 H         1 UNK         0.0000 
     48 H48        -3.9608   15.7340  -11.0358 H         1 UNK         0.0000 
     49 H49        -0.8094   12.8612  -12.3391 H         1 UNK         0.0000 
@<TRIPOS>BOND
     1    1    2 ar   
     2    1    4 ar   
     3    1   12 1    
     4    2    6 ar   
     5    2   29 1    
     6    3    4 ar   
     7    3    5 ar   
     8    3   30 1    
     9    4   31 1    
    10    5    6 ar   
    11    5    9 ar   
    12    6    7 ar   
    13    7    8 ar   
    14    7   10 1    
    15    8    9 ar   
    16    9   32 1    
    17   10   14 1    
    18   10   33 1    
    19   10   34 1    
    20   11   12 am   BACKBONE|DICT|INTERRES
    21   11   24 1    
    22   11   27 1    
    23   12   13 2    
    24   14   15 ar   
    25   14   19 ar   
    26   15   16 ar   
    27   15   35 1    
    28   16   17 ar   
    29   16   20 ar   
    30   17   18 ar   
    31   17   22 ar   
    32   18   19 ar   
    33   18   36 1    
    34   19   37 1    
    35   20   21 ar   
    36   20   38 1    
    37   21   22 ar   
    38   22   23 1    
    39   23   39 1    
    40   23   40 1    
    41   23   41 1    
    42   24   25 1    
    43   24   42 1    
    44   24   43 1    
    45   25   26 1    
    46   25   28 1    
    47   25   44 1    
    48   26   27 1    
    49   26   45 1    
    50   26   46 1    
    51   27   47 1    
    52   27   48 1    
    53   28   49 1    
@<TRIPOS>SUBSTRUCTURE
     1 UNK         1 GROUP             0       ****    0 ROOT    
