@<TRIPOS>MOLECULE
40
54   58    1
SMALL
USER_CHARGES


@<TRIPOS>ATOM
      1 C1         -6.3583   12.3628  -12.0152 C.ar      1 UNK         0.0000 
      2 C2         -6.5007   11.8020  -10.7383 C.ar      1 UNK         0.0000 
      3 C3         -7.7096   10.5772  -13.0382 C.ar      1 UNK         0.0000 
      4 C4         -6.9777   11.7759  -13.1307 C.ar      1 UNK         0.0000 
      5 C5         -7.8132   10.0130  -11.7619 C.ar      1 UNK         0.0000 
      6 C6         -7.2338   10.6200  -10.6051 C.ar      1 UNK         0.0000 
      7 C7         -7.6121    9.7513   -9.5135 C.ar      1 UNK         0.0000 
      8 N8         -8.2831    8.7414   -9.9888 N.2       1 UNK         0.0000 
      9 N9         -8.4159    8.8683  -11.3018 N.pl3     1 UNK         0.0000 
     10 C10        -7.3364    9.8882   -8.0249 C.3       1 UNK         0.0000 
     11 N11        -4.3745   13.7307  -11.4480 N.am      1 UNK         0.0000 
     12 C12        -5.5401   13.6479  -12.1823 C.2       1 UNK         0.0000 
     13 O13        -5.9305   14.5456  -12.9289 O.2       1 UNK         0.0000 
     14 C14        -5.9622   10.4857   -7.7364 C.ar      1 UNK         0.0000 
     15 C15        -4.8106    9.7658   -8.0516 C.ar      1 UNK         0.0000 
     16 C16        -3.5548   10.3163   -7.8015 C.ar      1 UNK         0.0000 
     17 C17        -3.4456   11.5910   -7.2371 C.ar      1 UNK         0.0000 
     18 C18        -4.5995   12.3069   -6.9174 C.ar      1 UNK         0.0000 
     19 C19        -5.8550   11.7570   -7.1647 C.ar      1 UNK         0.0000 
     20 C20        -2.1008   12.1810   -6.9758 C.ar      1 UNK         0.0000 
     21 C21        -1.7660   13.4388   -6.4773 C.ar      1 UNK         0.0000 
     22 N22        -0.4314   13.4905   -6.4174 N.pl3     1 UNK         0.0000 
     23 N23         0.1713   12.4042   -6.8124 N.2       1 UNK         0.0000 
     24 C24        -0.8030   11.5879   -7.1791 C.ar      1 UNK         0.0000 
     25 C25         0.3850   14.6084   -5.9658 C.3       1 UNK         0.0000 
     26 C26        -3.6973   12.5089  -10.9175 C.3       1 UNK         0.0000 
     27 C27        -2.2248   12.4637  -11.4426 C.3       1 UNK         0.0000 
     28 N28        -1.4987   13.7622  -11.0653 N.3       1 UNK         0.0000 
     29 C29        -2.2038   14.9363  -11.7527 C.3       1 UNK         0.0000 
     30 C30        -3.6757   15.0331  -11.3164 C.3       1 UNK         0.0000 
     31 H31        -6.0576   12.2794   -9.8741 H         1 UNK         0.0000 
     32 H32        -8.1618   10.1180  -13.9096 H         1 UNK         0.0000 
     33 H33        -6.8627   12.2402  -14.0994 H         1 UNK         0.0000 
     34 H34        -8.9144    8.1615  -11.8374 H         1 UNK         0.0000 
     35 H35        -8.0961   10.5439   -7.5948 H         1 UNK         0.0000 
     36 H36        -7.4395    8.9258   -7.5160 H         1 UNK         0.0000 
     37 H37        -4.8927    8.7818   -8.4930 H         1 UNK         0.0000 
     38 H38        -2.6634    9.7542   -8.0449 H         1 UNK         0.0000 
     39 H39        -4.5193   13.2884   -6.4757 H         1 UNK         0.0000 
     40 H40        -6.7435   12.3170   -6.9183 H         1 UNK         0.0000 
     41 H41        -2.3645   14.2802   -6.1683 H         1 UNK         0.0000 
     42 H42        -0.6001   10.5957   -7.5620 H         1 UNK         0.0000 
     43 H43        -0.2377   15.4493   -5.6626 H         1 UNK         0.0000 
     44 H44         1.0462   14.9289   -6.7713 H         1 UNK         0.0000 
     45 H45         0.9992   14.2960   -5.1216 H         1 UNK         0.0000 
     46 H46        -4.1358   11.5686  -11.2816 H         1 UNK         0.0000 
     47 H47        -3.6934   12.5388   -9.8270 H         1 UNK         0.0000 
     48 H48        -2.1213   12.3537  -12.5312 H         1 UNK         0.0000 
     49 H49        -1.6337   11.6737  -10.9669 H         1 UNK         0.0000 
     50 H50        -0.5199   13.7316  -11.3435 H         1 UNK         0.0000 
     51 H51        -2.1273   14.7832  -12.8186 H         1 UNK         0.0000 
     52 H52        -1.6221   15.8316  -11.5127 H         1 UNK         0.0000 
     53 H53        -4.1533   15.8523  -11.8646 H         1 UNK         0.0000 
     54 H54        -3.6812   15.2813  -10.2566 H         1 UNK         0.0000 
@<TRIPOS>BOND
     1    1    2 ar   
     2    1    4 ar   
     3    1   12 1    
     4    2    6 ar   
     5    2   31 1    
     6    3    4 ar   
     7    3    5 ar   
     8    3   32 1    
     9    4   33 1    
    10    5    6 ar   
    11    5    9 ar   
    12    6    7 ar   
    13    7    8 ar   
    14    7   10 1    
    15    8    9 ar   
    16    9   34 1    
    17   10   14 1    
    18   10   35 1    
    19   10   36 1    
    20   11   12 am   BACKBONE|DICT|INTERRES
    21   11   26 1    
    22   11   30 1    
    23   12   13 2    
    24   14   15 ar   
    25   14   19 ar   
    26   15   16 ar   
    27   15   37 1    
    28   16   17 ar   
    29   16   38 1    
    30   17   18 ar   
    31   17   20 1    
    32   18   19 ar   
    33   18   39 1    
    34   19   40 1    
    35   20   21 ar   
    36   20   24 ar   
    37   21   22 ar   
    38   21   41 1    
    39   22   23 ar   
    40   22   25 1    
    41   23   24 ar   
    42   24   42 1    
    43   25   43 1    
    44   25   44 1    
    45   25   45 1    
    46   26   27 1    
    47   26   46 1    
    48   26   47 1    
    49   27   28 1    
    50   27   48 1    
    51   27   49 1    
    52   28   29 1    
    53   28   50 1    
    54   29   30 1    
    55   29   51 1    
    56   29   52 1    
    57   30   53 1    
    58   30   54 1    
@<TRIPOS>SUBSTRUCTURE
     1 UNK         1 GROUP             0       ****    0 ROOT    
