@<TRIPOS>MOLECULE
30
53   57    1
SMALL
USER_CHARGES


@<TRIPOS>ATOM
      1 C1         -6.3720   12.3564  -12.0094 C.ar      1 UNK         0.0000 
      2 C2         -6.5328   11.8103  -10.7336 C.ar      1 UNK         0.0000 
      3 C3         -7.7318   10.5755  -13.0290 C.ar      1 UNK         0.0000 
      4 C4         -6.9898   11.7633  -13.1279 C.ar      1 UNK         0.0000 
      5 C5         -7.8210   10.0065  -11.7558 C.ar      1 UNK         0.0000 
      6 C6         -7.2477   10.6184  -10.6026 C.ar      1 UNK         0.0000 
      7 C7         -7.6140    9.7458   -9.5136 C.ar      1 UNK         0.0000 
      8 N8         -8.2690    8.7218   -9.9879 N.2       1 UNK         0.0000 
      9 N9         -8.4092    8.8538  -11.2990 N.pl3     1 UNK         0.0000 
     10 C10        -7.3381    9.8926   -8.0280 C.3       1 UNK         0.0000 
     11 N11        -4.3458   13.7121  -11.5140 N.am      1 UNK         0.0000 
     12 C12        -5.5478   13.6364  -12.1864 C.2       1 UNK         0.0000 
     13 O13        -5.9572   14.5395  -12.9136 O.2       1 UNK         0.0000 
     14 C14        -5.9581   10.4851   -7.7363 C.ar      1 UNK         0.0000 
     15 C15        -4.8068    9.7633   -8.0566 C.ar      1 UNK         0.0000 
     16 C16        -3.5506   10.3101   -7.8085 C.ar      1 UNK         0.0000 
     17 C17        -3.4405   11.5856   -7.2383 C.ar      1 UNK         0.0000 
     18 C18        -4.5911   12.3019   -6.9155 C.ar      1 UNK         0.0000 
     19 C19        -5.8461   11.7538   -7.1583 C.ar      1 UNK         0.0000 
     20 C20        -2.0993   12.1777   -6.9729 C.ar      1 UNK         0.0000 
     21 C21        -1.7708   13.4214   -6.4416 C.ar      1 UNK         0.0000 
     22 N22        -0.4313   13.4856   -6.3949 N.pl3     1 UNK         0.0000 
     23 N23         0.1723   12.4145   -6.8299 N.2       1 UNK         0.0000 
     24 C24        -0.8042   11.6008   -7.2039 C.ar      1 UNK         0.0000 
     25 C25         0.3889   14.5981   -5.9187 C.3       1 UNK         0.0000 
     26 C26        -3.6987   12.5799  -10.8351 C.3       1 UNK         0.0000 
     27 C27        -2.1930   12.9387  -10.9658 C.3       1 UNK         0.0000 
     28 C28        -2.1862   14.4653  -10.9438 C.3       1 UNK         0.0000 
     29 C29        -3.5086   14.9068  -11.5988 C.3       1 UNK         0.0000 
     30 O30        -1.6500   12.4417  -12.1854 O.3       1 UNK         0.0000 
     31 H31        -6.1228   12.3020   -9.8704 H         1 UNK         0.0000 
     32 H32        -8.1946   10.1248  -13.8941 H         1 UNK         0.0000 
     33 H33        -6.8719   12.2188  -14.1038 H         1 UNK         0.0000 
     34 H34        -8.9012    8.1471  -11.8351 H         1 UNK         0.0000 
     35 H35        -8.1102   10.5319   -7.5935 H         1 UNK         0.0000 
     36 H36        -7.4404    8.9270   -7.5371 H         1 UNK         0.0000 
     37 H37        -4.8882    8.7805   -8.5006 H         1 UNK         0.0000 
     38 H38        -2.6630    9.7449   -8.0588 H         1 UNK         0.0000 
     39 H39        -4.5090   13.2838   -6.4768 H         1 UNK         0.0000 
     40 H40        -6.7306   12.3145   -6.9043 H         1 UNK         0.0000 
     41 H41        -2.3781   14.2464   -6.1018 H         1 UNK         0.0000 
     42 H42        -0.6071   10.6213   -7.6157 H         1 UNK         0.0000 
     43 H43        -0.2361   15.4217   -5.5765 H         1 UNK         0.0000 
     44 H44         1.0353   14.9583   -6.7244 H         1 UNK         0.0000 
     45 H45         1.0204   14.2664   -5.0904 H         1 UNK         0.0000 
     46 H46        -3.9494   12.5468   -9.7772 H         1 UNK         0.0000 
     47 H47        -3.8987   11.6278  -11.3169 H         1 UNK         0.0000 
     48 H48        -1.6028   12.5034  -10.1600 H         1 UNK         0.0000 
     49 H49        -2.1219   14.8241   -9.9090 H         1 UNK         0.0000 
     50 H50        -1.3279   14.8751  -11.4738 H         1 UNK         0.0000 
     51 H51        -3.3274   15.2143  -12.6293 H         1 UNK         0.0000 
     52 H52        -3.9689   15.7190  -11.0435 H         1 UNK         0.0000 
     53 H53        -0.7819   12.8449  -12.3329 H         1 UNK         0.0000 
@<TRIPOS>BOND
     1    1    2 ar   
     2    1    4 ar   
     3    1   12 1    
     4    2    6 ar   
     5    2   31 1    
     6    3    4 ar   
     7    3    5 ar   
     8    3   32 1    
     9    4   33 1    
    10    5    6 ar   
    11    5    9 ar   
    12    6    7 ar   
    13    7    8 ar   
    14    7   10 1    
    15    8    9 ar   
    16    9   34 1    
    17   10   14 1    
    18   10   35 1    
    19   10   36 1    
    20   11   12 am   BACKBONE|DICT|INTERRES
    21   11   26 1    
    22   11   29 1    
    23   12   13 2    
    24   14   15 ar   
    25   14   19 ar   
    26   15   16 ar   
    27   15   37 1    
    28   16   17 ar   
    29   16   38 1    
    30   17   18 ar   
    31   17   20 1    
    32   18   19 ar   
    33   18   39 1    
    34   19   40 1    
    35   20   21 ar   
    36   20   24 ar   
    37   21   22 ar   
    38   21   41 1    
    39   22   23 ar   
    40   22   25 1    
    41   23   24 ar   
    42   24   42 1    
    43   25   43 1    
    44   25   44 1    
    45   25   45 1    
    46   26   27 1    
    47   26   46 1    
    48   26   47 1    
    49   27   28 1    
    50   27   30 1    
    51   27   48 1    
    52   28   29 1    
    53   28   49 1    
    54   28   50 1    
    55   29   51 1    
    56   29   52 1    
    57   30   53 1    
@<TRIPOS>SUBSTRUCTURE
     1 UNK         1 GROUP             0       ****    0 ROOT    
