@<TRIPOS>MOLECULE
17
41   44    1
SMALL
USER_CHARGES


@<TRIPOS>ATOM
      1 C1         -6.3808   12.3686  -12.0119 C.ar      1 UNK         0.0000 
      2 C2         -6.5112   11.8116  -10.7365 C.ar      1 UNK         0.0000 
      3 C3         -7.7301   10.5824  -13.0300 C.ar      1 UNK         0.0000 
      4 C4         -6.9992   11.7782  -13.1263 C.ar      1 UNK         0.0000 
      5 C5         -7.8250   10.0166  -11.7542 C.ar      1 UNK         0.0000 
      6 C6         -7.2407   10.6266  -10.6010 C.ar      1 UNK         0.0000 
      7 C7         -7.6094    9.7513   -9.5103 C.ar      1 UNK         0.0000 
      8 N8         -8.2849    8.7404   -9.9846 N.2       1 UNK         0.0000 
      9 N9         -8.4192    8.8674  -11.2983 N.pl3     1 UNK         0.0000 
     10 C10        -7.3225    9.8872   -8.0242 C.3       1 UNK         0.0000 
     11 N11        -4.3834   13.6199  -11.4933 N.am      1 UNK         0.0000 
     12 C12        -3.4237   14.7282  -11.5789 C.3       1 UNK         0.0000 
     13 C13        -5.5369   13.6139  -12.1980 C.2       1 UNK         0.0000 
     14 O14        -5.8771   14.5161  -12.9653 O.2       1 UNK         0.0000 
     15 C15        -5.9516   10.5005   -7.7272 C.ar      1 UNK         0.0000 
     16 C16        -5.8803   11.7722   -7.1539 C.ar      1 UNK         0.0000 
     17 C17        -4.6129   12.3159   -6.9118 C.ar      1 UNK         0.0000 
     18 C18        -3.4418   11.5625   -7.2429 C.ar      1 UNK         0.0000 
     19 C19        -3.5059   10.2842   -7.8062 C.ar      1 UNK         0.0000 
     20 C20        -4.7935    9.7780   -8.0417 C.ar      1 UNK         0.0000 
     21 N21        -4.0936   13.5458   -6.3664 N.pl3     1 UNK         0.0000 
     22 N22        -2.7885   13.5288   -6.3742 N.2       1 UNK         0.0000 
     23 C23        -2.3831   12.3683   -6.8823 C.ar      1 UNK         0.0000 
     24 H24        -6.0562   12.2861   -9.8790 H         1 UNK         0.0000 
     25 H25        -8.1818   10.1228  -13.8979 H         1 UNK         0.0000 
     26 H26        -6.8754   12.2375  -14.0963 H         1 UNK         0.0000 
     27 H27        -8.9135    8.1599  -11.8328 H         1 UNK         0.0000 
     28 H28        -8.0847   10.5486   -7.6052 H         1 UNK         0.0000 
     29 H29        -7.4513    8.9399   -7.4976 H         1 UNK         0.0000 
     30 H30        -4.1150   12.8057  -10.9566 H         1 UNK         0.0000 
     31 H31        -2.8208   14.7394  -10.6724 H         1 UNK         0.0000 
     32 H32        -3.8878   15.7111  -11.6718 H         1 UNK         0.0000 
     33 H33        -2.7196   14.6037  -12.4046 H         1 UNK         0.0000 
     34 H34        -6.7772   12.3192   -6.9132 H         1 UNK         0.0000 
     35 H35        -2.6153    9.7128   -8.0447 H         1 UNK         0.0000 
     36 H36        -4.8994    8.7979   -8.4799 H         1 UNK         0.0000 
     37 H37        -1.3694   12.0252   -7.0275 H         1 UNK         0.0000 
     38 C38        -5.0479   14.6272   -5.8866 C.3       1 UNK         0.0000 
     39 H39        -4.4767   15.4758   -5.5103 H         1 UNK         0.0000 
     40 H40        -5.6764   14.9519   -6.7159 H         1 UNK         0.0000 
     41 H41        -5.6761   14.2304   -5.0891 H         1 UNK         0.0000 
@<TRIPOS>BOND
     1    1    2 ar   
     2    1    4 ar   
     3    1   13 1    
     4    2    6 ar   
     5    2   24 1    
     6    3    4 ar   
     7    3    5 ar   
     8    3   25 1    
     9    4   26 1    
    10    5    6 ar   
    11    5    9 ar   
    12    6    7 ar   
    13    7    8 ar   
    14    7   10 1    
    15    8    9 ar   
    16    9   27 1    
    17   10   15 1    
    18   10   28 1    
    19   10   29 1    
    20   11   12 1    
    21   11   13 am   BACKBONE|DICT|INTERRES
    22   11   30 1    
    23   12   31 1    
    24   12   32 1    
    25   12   33 1    
    26   13   14 2    
    27   15   16 ar   
    28   15   20 ar   
    29   16   17 ar   
    30   16   34 1    
    31   17   18 ar   
    32   17   21 ar   
    33   18   19 ar   
    34   18   23 ar   
    35   19   20 ar   
    36   19   35 1    
    37   20   36 1    
    38   21   22 ar   
    39   21   38 1    
    40   22   23 ar   
    41   23   37 1    
    42   38   39 1    
    43   38   40 1    
    44   38   41 1    
@<TRIPOS>SUBSTRUCTURE
     1 UNK         1 GROUP             0       ****    0 ROOT    
