@<TRIPOS>MOLECULE
16
38   40    1
SMALL
USER_CHARGES


@<TRIPOS>ATOM
      1 C1         -6.3886   12.3706  -12.0044 C.ar      1 UNK         0.0000 
      2 C2         -6.5217   11.8105  -10.7338 C.ar      1 UNK         0.0000 
      3 C3         -7.7267   10.5778  -13.0331 C.ar      1 UNK         0.0000 
      4 C4         -6.9997   11.7772  -13.1264 C.ar      1 UNK         0.0000 
      5 C5         -7.8245   10.0105  -11.7588 C.ar      1 UNK         0.0000 
      6 C6         -7.2447   10.6240  -10.5997 C.ar      1 UNK         0.0000 
      7 C7         -7.6157    9.7479   -9.5130 C.ar      1 UNK         0.0000 
      8 N8         -8.2818    8.7335   -9.9900 N.2       1 UNK         0.0000 
      9 N9         -8.4155    8.8614  -11.3010 N.pl3     1 UNK         0.0000 
     10 C10        -7.3377    9.8874   -8.0251 C.3       1 UNK         0.0000 
     11 N11        -4.4115   13.6449  -11.4457 N.am      1 UNK         0.0000 
     12 C12        -3.4644   14.7678  -11.5034 C.3       1 UNK         0.0000 
     13 C13        -5.5490   13.6243  -12.1808 C.2       1 UNK         0.0000 
     14 O14        -5.8784   14.5204  -12.9613 O.2       1 UNK         0.0000 
     15 C15        -5.9596   10.4818   -7.7362 C.ar      1 UNK         0.0000 
     16 C16        -5.8460   11.7538   -7.1602 C.ar      1 UNK         0.0000 
     17 C17        -4.5819   12.3007   -6.9160 C.ar      1 UNK         0.0000 
     18 C18        -3.4335   11.5746   -7.2403 C.ar      1 UNK         0.0000 
     19 C19        -3.5461   10.3067   -7.8068 C.ar      1 UNK         0.0000 
     20 C20        -4.8068    9.7600   -8.0558 C.ar      1 UNK         0.0000 
     21 C21        -4.4568   13.6807   -6.3006 C.3       1 UNK         0.0000 
     22 H22        -6.0743   12.2887   -9.8728 H         1 UNK         0.0000 
     23 H23        -8.1728   10.1132  -13.9065 H         1 UNK         0.0000 
     24 H24        -6.8713   12.2373  -14.0952 H         1 UNK         0.0000 
     25 H25        -8.9100    8.1539  -11.8356 H         1 UNK         0.0000 
     26 H26        -8.0973   10.5468   -7.6004 H         1 UNK         0.0000 
     27 H27        -7.4473    8.9276   -7.5184 H         1 UNK         0.0000 
     28 H28        -4.1460   12.8361  -10.8988 H         1 UNK         0.0000 
     29 H29        -2.4475   14.4022  -11.3420 H         1 UNK         0.0000 
     30 H30        -3.6702   15.4633  -10.6915 H         1 UNK         0.0000 
     31 H31        -3.4486   15.3231  -12.4449 H         1 UNK         0.0000 
     32 H32        -6.7333   12.3169   -6.9116 H         1 UNK         0.0000 
     33 H33        -2.4555   11.9950   -7.0528 H         1 UNK         0.0000 
     34 H34        -2.6550    9.7463   -8.0534 H         1 UNK         0.0000 
     35 H35        -4.8912    8.7783   -8.5004 H         1 UNK         0.0000 
     36 H36        -4.4890   14.4469   -7.0749 H         1 UNK         0.0000 
     37 H37        -3.5248   13.7811   -5.7425 H         1 UNK         0.0000 
     38 H38        -5.2684   13.8625   -5.5988 H         1 UNK         0.0000 
@<TRIPOS>BOND
     1    1    2 ar   
     2    1    4 ar   
     3    1   13 1    
     4    2    6 ar   
     5    2   22 1    
     6    3    4 ar   
     7    3    5 ar   
     8    3   23 1    
     9    4   24 1    
    10    5    6 ar   
    11    5    9 ar   
    12    6    7 ar   
    13    7    8 ar   
    14    7   10 1    
    15    8    9 ar   
    16    9   25 1    
    17   10   15 1    
    18   10   26 1    
    19   10   27 1    
    20   11   12 1    
    21   11   13 am   BACKBONE|DICT|INTERRES
    22   11   28 1    
    23   12   29 1    
    24   12   30 1    
    25   12   31 1    
    26   13   14 2    
    27   15   16 ar   
    28   15   20 ar   
    29   16   17 ar   
    30   16   32 1    
    31   17   18 ar   
    32   17   21 1    
    33   18   19 ar   
    34   18   33 1    
    35   19   20 ar   
    36   19   34 1    
    37   20   35 1    
    38   21   36 1    
    39   21   37 1    
    40   21   38 1    
@<TRIPOS>SUBSTRUCTURE
     1 UNK         1 GROUP             0       ****    0 ROOT    
