@<TRIPOS>MOLECULE
34
49   53    1
SMALL
USER_CHARGES


@<TRIPOS>ATOM
      1 C1         -6.4024   12.3461  -12.0147 C.ar      1 UNK         0.0000 
      2 C2         -6.5825   11.7781  -10.7426 C.ar      1 UNK         0.0000 
      3 C3         -7.7347   10.5660  -13.0395 C.ar      1 UNK         0.0000 
      4 C4         -6.9966   11.7550  -13.1361 C.ar      1 UNK         0.0000 
      5 C5         -7.8265    9.9936  -11.7632 C.ar      1 UNK         0.0000 
      6 C6         -7.2675   10.6024  -10.6199 C.ar      1 UNK         0.0000 
      7 C7         -7.6234    9.7358   -9.5255 C.ar      1 UNK         0.0000 
      8 N8         -8.2741    8.7136   -9.9910 N.2       1 UNK         0.0000 
      9 N9         -8.4130    8.8453  -11.3044 N.pl3     1 UNK         0.0000 
     10 C10        -7.3406    9.8933   -8.0338 C.3       1 UNK         0.0000 
     11 N11        -4.5538   13.8407  -11.3379 N.am      1 UNK         0.0000 
     12 C12        -5.6005   13.6490  -12.1765 C.2       1 UNK         0.0000 
     13 O13        -5.9196   14.4808  -13.0199 O.2       1 UNK         0.0000 
     14 C14        -5.9590   10.4855   -7.7382 C.ar      1 UNK         0.0000 
     15 C15        -4.8075    9.7636   -8.0570 C.ar      1 UNK         0.0000 
     16 C16        -3.5513   10.3099   -7.8070 C.ar      1 UNK         0.0000 
     17 C17        -3.4406   11.5840   -7.2355 C.ar      1 UNK         0.0000 
     18 C18        -4.5915   12.3007   -6.9126 C.ar      1 UNK         0.0000 
     19 C19        -5.8470   11.7538   -7.1581 C.ar      1 UNK         0.0000 
     20 C20        -2.0979   12.1738   -6.9691 C.ar      1 UNK         0.0000 
     21 C21        -1.7666   13.4166   -6.4372 C.ar      1 UNK         0.0000 
     22 N22        -0.4273   13.4768   -6.3903 N.pl3     1 UNK         0.0000 
     23 N23         0.1744   12.4049   -6.8247 N.2       1 UNK         0.0000 
     24 C24        -0.8040   11.5944   -7.2012 C.ar      1 UNK         0.0000 
     25 C25         0.3946   14.5874   -5.9129 C.3       1 UNK         0.0000 
     26 C26        -4.1104   13.1199  -10.1564 C.3       1 UNK         0.0000 
     27 C27        -3.1547   14.2611   -9.9254 C.3       1 UNK         0.0000 
     28 C28        -3.7686   15.0454  -11.0979 C.3       1 UNK         0.0000 
     29 F29        -3.3454   14.7999   -8.7258 F         1 UNK         0.0000 
     30 F30        -1.8808   13.9286  -10.0717 F         1 UNK         0.0000 
     31 H31        -6.2371   12.2377   -9.8825 H         1 UNK         0.0000 
     32 H32        -8.1965   10.1201  -13.9011 H         1 UNK         0.0000 
     33 H33        -6.8777   12.2189  -14.1082 H         1 UNK         0.0000 
     34 H34        -8.9048    8.1432  -11.8372 H         1 UNK         0.0000 
     35 H35        -8.1066   10.5395   -7.5982 H         1 UNK         0.0000 
     36 H36        -7.4470    8.9316   -7.5331 H         1 UNK         0.0000 
     37 H37        -4.8888    8.7812   -8.5015 H         1 UNK         0.0000 
     38 H38        -2.6633    9.7451   -8.0571 H         1 UNK         0.0000 
     39 H39        -4.5093   13.2831   -6.4741 H         1 UNK         0.0000 
     40 H40        -6.7314   12.3149   -6.9053 H         1 UNK         0.0000 
     41 H41        -2.3717   14.2432   -6.0985 H         1 UNK         0.0000 
     42 H42        -0.6084   10.6151   -7.6146 H         1 UNK         0.0000 
     43 H43        -0.2286   15.4127   -5.5721 H         1 UNK         0.0000 
     44 H44         1.0434   14.9448   -6.7174 H         1 UNK         0.0000 
     45 H45         1.0235   14.2533   -5.0839 H         1 UNK         0.0000 
     46 H46        -3.7139   12.1065  -10.2127 H         1 UNK         0.0000 
     47 H47        -4.9207   13.2607   -9.4790 H         1 UNK         0.0000 
     48 H48        -4.5371   15.7574  -10.8202 H         1 UNK         0.0000 
     49 H49        -3.0553   15.4231  -11.8251 H         1 UNK         0.0000 
@<TRIPOS>BOND
     1    1    2 ar   
     2    1    4 ar   
     3    1   12 1    
     4    2    6 ar   
     5    2   31 1    
     6    3    4 ar   
     7    3    5 ar   
     8    3   32 1    
     9    4   33 1    
    10    5    6 ar   
    11    5    9 ar   
    12    6    7 ar   
    13    7    8 ar   
    14    7   10 1    
    15    8    9 ar   
    16    9   34 1    
    17   10   14 1    
    18   10   35 1    
    19   10   36 1    
    20   11   12 am   BACKBONE|DICT|INTERRES
    21   11   26 1    
    22   11   28 1    
    23   12   13 2    
    24   14   15 ar   
    25   14   19 ar   
    26   15   16 ar   
    27   15   37 1    
    28   16   17 ar   
    29   16   38 1    
    30   17   18 ar   
    31   17   20 1    
    32   18   19 ar   
    33   18   39 1    
    34   19   40 1    
    35   20   21 ar   
    36   20   24 ar   
    37   21   22 ar   
    38   21   41 1    
    39   22   23 ar   
    40   22   25 1    
    41   23   24 ar   
    42   24   42 1    
    43   25   43 1    
    44   25   44 1    
    45   25   45 1    
    46   26   27 1    
    47   26   46 1    
    48   26   47 1    
    49   27   28 1    
    50   27   29 1    
    51   27   30 1    
    52   28   48 1    
    53   28   49 1    
@<TRIPOS>SUBSTRUCTURE
     1 UNK         1 GROUP             0       ****    0 ROOT    
