@<TRIPOS>MOLECULE
41
55   59    1
SMALL
USER_CHARGES


@<TRIPOS>ATOM
      1 C1         -6.3365   12.3514  -12.0169 C.ar      1 UNK         0.0000 
      2 C2         -6.4737   11.7818  -10.7533 C.ar      1 UNK         0.0000 
      3 C3         -7.7043   10.5771  -13.0419 C.ar      1 UNK         0.0000 
      4 C4         -6.9700   11.7706  -13.1413 C.ar      1 UNK         0.0000 
      5 C5         -7.8117   10.0060  -11.7679 C.ar      1 UNK         0.0000 
      6 C6         -7.2142   10.6153  -10.6085 C.ar      1 UNK         0.0000 
      7 C7         -7.6079    9.7475   -9.5180 C.ar      1 UNK         0.0000 
      8 N8         -8.2848    8.7450   -9.9896 N.2       1 UNK         0.0000 
      9 N9         -8.4180    8.8715  -11.3012 N.pl3     1 UNK         0.0000 
     10 C10        -7.3345    9.8877   -8.0248 C.3       1 UNK         0.0000 
     11 N11        -4.3847   13.7235  -11.4418 N.am      1 UNK         0.0000 
     12 C12        -5.5533   13.6485  -12.1711 C.2       1 UNK         0.0000 
     13 O13        -5.9795   14.5724  -12.8566 O.2       1 UNK         0.0000 
     14 C14        -5.9627   10.4850   -7.7364 C.ar      1 UNK         0.0000 
     15 C15        -5.8552   11.7581   -7.1652 C.ar      1 UNK         0.0000 
     16 C16        -4.5966   12.3060   -6.9181 C.ar      1 UNK         0.0000 
     17 C17        -3.4424   11.5865   -7.2381 C.ar      1 UNK         0.0000 
     18 C18        -3.5593   10.3139   -7.8013 C.ar      1 UNK         0.0000 
     19 C19        -4.8122    9.7647   -8.0513 C.ar      1 UNK         0.0000 
     20 C20        -2.0942   12.1662   -6.9781 C.ar      1 UNK         0.0000 
     21 C21        -1.7414   13.4274   -6.4937 C.ar      1 UNK         0.0000 
     22 N22        -0.4089   13.4560   -6.4321 N.pl3     1 UNK         0.0000 
     23 N23         0.1814   12.3590   -6.8068 N.2       1 UNK         0.0000 
     24 C24        -0.8029   11.5527   -7.1728 C.ar      1 UNK         0.0000 
     25 C25         0.4236   14.5699   -5.9945 C.3       1 UNK         0.0000 
     26 C26        -3.7594   15.0422  -11.2114 C.3       1 UNK         0.0000 
     27 C27        -2.3424   15.0924  -11.7154 C.3       1 UNK         0.0000 
     28 C28        -1.5130   13.9202  -11.2644 C.3       1 UNK         0.0000 
     29 C29        -2.1771   12.5990  -11.6641 C.3       1 UNK         0.0000 
     30 C30        -3.6239   12.4833  -11.0641 C.3       1 UNK         0.0000 
     31 H31        -6.0203   12.2640   -9.8874 H         1 UNK         0.0000 
     32 H32        -8.1715   10.1187  -13.9133 H         1 UNK         0.0000 
     33 H33        -6.8628   12.2427  -14.1041 H         1 UNK         0.0000 
     34 H34        -8.9193    8.1643  -11.8362 H         1 UNK         0.0000 
     35 H35        -8.0961   10.5380   -7.5913 H         1 UNK         0.0000 
     36 H36        -7.4318    8.9209   -7.5184 H         1 UNK         0.0000 
     37 H37        -6.7443   12.3180   -6.9210 H         1 UNK         0.0000 
     38 H38        -4.5105   13.2878   -6.4761 H         1 UNK         0.0000 
     39 H39        -2.6670    9.7505   -8.0456 H         1 UNK         0.0000 
     40 H40        -4.8966    8.7819   -8.4933 H         1 UNK         0.0000 
     41 H41        -2.3275   14.2803   -6.2000 H         1 UNK         0.0000 
     42 H42        -0.6107   10.5549   -7.5458 H         1 UNK         0.0000 
     43 H43        -0.1867   15.4238   -5.7057 H         1 UNK         0.0000 
     44 H44         1.0912   14.8675   -6.8032 H         1 UNK         0.0000 
     45 H45         1.0319   14.2596   -5.1462 H         1 UNK         0.0000 
     46 H46        -3.6902   15.1046  -10.1315 H         1 UNK         0.0000 
     47 H47        -4.3521   15.8883  -11.5628 H         1 UNK         0.0000 
     48 H48        -2.4316   15.1240  -12.7851 H         1 UNK         0.0000 
     49 H49        -1.8360   16.0057  -11.4240 H         1 UNK         0.0000 
     50 H50        -1.2586   13.9646  -10.2112 H         1 UNK         0.0000 
     51 H51        -0.5771   14.0998  -11.7264 H         1 UNK         0.0000 
     52 H52        -2.1550   12.4998  -12.7567 H         1 UNK         0.0000 
     53 H53        -1.5317   11.7847  -11.3278 H         1 UNK         0.0000 
     54 H54        -3.5224   12.4160   -9.9808 H         1 UNK         0.0000 
     55 H55        -4.0278   11.5608  -11.5111 H         1 UNK         0.0000 
@<TRIPOS>BOND
     1    1    2 ar   
     2    1    4 ar   
     3    1   12 1    
     4    2    6 ar   
     5    2   31 1    
     6    3    4 ar   
     7    3    5 ar   
     8    3   32 1    
     9    4   33 1    
    10    5    6 ar   
    11    5    9 ar   
    12    6    7 ar   
    13    7    8 ar   
    14    7   10 1    
    15    8    9 ar   
    16    9   34 1    
    17   10   14 1    
    18   10   35 1    
    19   10   36 1    
    20   11   12 am   BACKBONE|DICT|INTERRES
    21   11   26 1    
    22   11   30 1    
    23   12   13 2    
    24   14   15 ar   
    25   14   19 ar   
    26   15   16 ar   
    27   15   37 1    
    28   16   17 ar   
    29   16   38 1    
    30   17   18 ar   
    31   17   20 1    
    32   18   19 ar   
    33   18   39 1    
    34   19   40 1    
    35   20   21 ar   
    36   20   24 ar   
    37   21   22 ar   
    38   21   41 1    
    39   22   23 ar   
    40   22   25 1    
    41   23   24 ar   
    42   24   42 1    
    43   25   43 1    
    44   25   44 1    
    45   25   45 1    
    46   26   27 1    
    47   26   46 1    
    48   26   47 1    
    49   27   28 1    
    50   27   48 1    
    51   27   49 1    
    52   28   29 1    
    53   28   50 1    
    54   28   51 1    
    55   29   30 1    
    56   29   52 1    
    57   29   53 1    
    58   30   54 1    
    59   30   55 1    
@<TRIPOS>SUBSTRUCTURE
     1 UNK         1 GROUP             0       ****    0 ROOT    
