@<TRIPOS>MOLECULE
39
53   57    1
SMALL
USER_CHARGES


@<TRIPOS>ATOM
      1 C1         -6.3502   12.3553  -12.0171 C.ar      1 UNK         0.0000 
      2 C2         -6.4935   11.7977  -10.7426 C.ar      1 UNK         0.0000 
      3 C3         -7.7106   10.5751  -13.0385 C.ar      1 UNK         0.0000 
      4 C4         -6.9725   11.7720  -13.1357 C.ar      1 UNK         0.0000 
      5 C5         -7.8130   10.0109  -11.7654 C.ar      1 UNK         0.0000 
      6 C6         -7.2309   10.6170  -10.6058 C.ar      1 UNK         0.0000 
      7 C7         -7.6111    9.7517   -9.5147 C.ar      1 UNK         0.0000 
      8 N8         -8.2865    8.7392   -9.9897 N.2       1 UNK         0.0000 
      9 N9         -8.4152    8.8682  -11.3006 N.pl3     1 UNK         0.0000 
     10 C10        -7.3373    9.8888   -8.0252 C.3       1 UNK         0.0000 
     11 N11        -4.3541   13.7129  -11.4635 N.am      1 UNK         0.0000 
     12 C12        -5.5361   13.6428  -12.1728 C.2       1 UNK         0.0000 
     13 O13        -5.9526   14.5668  -12.8773 O.2       1 UNK         0.0000 
     14 C14        -5.9623   10.4854   -7.7364 C.ar      1 UNK         0.0000 
     15 C15        -5.8532   11.7571   -7.1646 C.ar      1 UNK         0.0000 
     16 C16        -4.5945   12.3064   -6.9180 C.ar      1 UNK         0.0000 
     17 C17        -3.4446   11.5858   -7.2382 C.ar      1 UNK         0.0000 
     18 C18        -3.5555   10.3115   -7.8022 C.ar      1 UNK         0.0000 
     19 C19        -4.8126    9.7649   -8.0516 C.ar      1 UNK         0.0000 
     20 C20        -2.0930   12.1652   -6.9785 C.ar      1 UNK         0.0000 
     21 C21        -1.7427   13.4236   -6.4970 C.ar      1 UNK         0.0000 
     22 N22        -0.4061   13.4591   -6.4324 N.pl3     1 UNK         0.0000 
     23 N23         0.1810   12.3567   -6.8070 N.2       1 UNK         0.0000 
     24 C24        -0.8030   11.5520   -7.1701 C.ar      1 UNK         0.0000 
     25 C25         0.4260   14.5701   -5.9973 C.3       1 UNK         0.0000 
     26 C26        -3.6444   15.0059  -11.3286 C.3       1 UNK         0.0000 
     27 C27        -2.1848   14.8660  -11.7465 C.3       1 UNK         0.0000 
     28 O28        -1.5251   13.6965  -11.2881 O.3       1 UNK         0.0000 
     29 C29        -2.2131   12.5012  -11.6333 C.3       1 UNK         0.0000 
     30 C30        -3.6517   12.4721  -11.0120 C.3       1 UNK         0.0000 
     31 H31        -6.0533   12.2782   -9.8788 H         1 UNK         0.0000 
     32 H32        -8.1683   10.1179  -13.9100 H         1 UNK         0.0000 
     33 H33        -6.8596   12.2364  -14.1027 H         1 UNK         0.0000 
     34 H34        -8.9137    8.1596  -11.8366 H         1 UNK         0.0000 
     35 H35        -8.0978   10.5418   -7.5943 H         1 UNK         0.0000 
     36 H36        -7.4385    8.9249   -7.5194 H         1 UNK         0.0000 
     37 H37        -6.7416   12.3179   -6.9181 H         1 UNK         0.0000 
     38 H38        -4.5106   13.2874   -6.4775 H         1 UNK         0.0000 
     39 H39        -2.6670    9.7484   -8.0467 H         1 UNK         0.0000 
     40 H40        -4.8951    8.7812   -8.4943 H         1 UNK         0.0000 
     41 H41        -2.3284   14.2801   -6.2040 H         1 UNK         0.0000 
     42 H42        -0.6137   10.5521   -7.5405 H         1 UNK         0.0000 
     43 H43        -0.1842   15.4249   -5.7096 H         1 UNK         0.0000 
     44 H44         1.0950   14.8685   -6.8061 H         1 UNK         0.0000 
     45 H45         1.0338   14.2620   -5.1464 H         1 UNK         0.0000 
     46 H46        -4.1459   15.8371  -11.8396 H         1 UNK         0.0000 
     47 H47        -3.5784   15.1813  -10.2625 H         1 UNK         0.0000 
     48 H48        -2.2664   14.7763  -12.8186 H         1 UNK         0.0000 
     49 H49        -1.5962   15.7735  -11.5993 H         1 UNK         0.0000 
     50 H50        -2.2364   12.3970  -12.7259 H         1 UNK         0.0000 
     51 H51        -1.6061   11.6676  -11.2795 H         1 UNK         0.0000 
     52 H52        -4.1100   11.5362  -11.3555 H         1 UNK         0.0000 
     53 H53        -3.5548   12.5406   -9.9299 H         1 UNK         0.0000 
@<TRIPOS>BOND
     1    1    2 ar   
     2    1    4 ar   
     3    1   12 1    
     4    2    6 ar   
     5    2   31 1    
     6    3    4 ar   
     7    3    5 ar   
     8    3   32 1    
     9    4   33 1    
    10    5    6 ar   
    11    5    9 ar   
    12    6    7 ar   
    13    7    8 ar   
    14    7   10 1    
    15    8    9 ar   
    16    9   34 1    
    17   10   14 1    
    18   10   35 1    
    19   10   36 1    
    20   11   12 am   BACKBONE|DICT|INTERRES
    21   11   26 1    
    22   11   30 1    
    23   12   13 2    
    24   14   15 ar   
    25   14   19 ar   
    26   15   16 ar   
    27   15   37 1    
    28   16   17 ar   
    29   16   38 1    
    30   17   18 ar   
    31   17   20 1    
    32   18   19 ar   
    33   18   39 1    
    34   19   40 1    
    35   20   21 ar   
    36   20   24 ar   
    37   21   22 ar   
    38   21   41 1    
    39   22   23 ar   
    40   22   25 1    
    41   23   24 ar   
    42   24   42 1    
    43   25   43 1    
    44   25   44 1    
    45   25   45 1    
    46   26   27 1    
    47   26   46 1    
    48   26   47 1    
    49   27   28 1    
    50   27   48 1    
    51   27   49 1    
    52   28   29 1    
    53   29   30 1    
    54   29   50 1    
    55   29   51 1    
    56   30   52 1    
    57   30   53 1    
@<TRIPOS>SUBSTRUCTURE
     1 UNK         1 GROUP             0       ****    0 ROOT    
