@<TRIPOS>MOLECULE
15
43   45    1
SMALL
USER_CHARGES


@<TRIPOS>ATOM
      1 C1         -6.3730   12.3647  -12.0124 C.ar      1 UNK         0.0000 
      2 C2         -6.5249   11.8167  -10.7375 C.ar      1 UNK         0.0000 
      3 C3         -7.7225   10.5819  -13.0270 C.ar      1 UNK         0.0000 
      4 C4         -6.9871   11.7813  -13.1320 C.ar      1 UNK         0.0000 
      5 C5         -7.8205   10.0150  -11.7538 C.ar      1 UNK         0.0000 
      6 C6         -7.2514   10.6217  -10.6093 C.ar      1 UNK         0.0000 
      7 C7         -7.6113    9.7463   -9.5119 C.ar      1 UNK         0.0000 
      8 N8         -8.2838    8.7282   -9.9768 N.2       1 UNK         0.0000 
      9 N9         -8.4166    8.8609  -11.2984 N.pl3     1 UNK         0.0000 
     10 C10        -7.3282    9.8959   -8.0269 C.3       1 UNK         0.0000 
     11 N11        -4.4004   13.6489  -11.4541 N.am      1 UNK         0.0000 
     12 C12        -3.4592   14.7715  -11.4916 C.3       1 UNK         0.0000 
     13 C13        -5.5363   13.6231  -12.1917 C.2       1 UNK         0.0000 
     14 O14        -5.8861   14.5056  -12.9557 O.2       1 UNK         0.0000 
     15 C15        -5.9554   10.4909   -7.7390 C.ar      1 UNK         0.0000 
     16 C16        -5.8447   11.7612   -7.1661 C.ar      1 UNK         0.0000 
     17 C17        -4.5697   12.3054   -6.9214 C.ar      1 UNK         0.0000 
     18 C18        -3.4308   11.5801   -7.2259 C.ar      1 UNK         0.0000 
     19 C19        -3.5429   10.3015   -7.8076 C.ar      1 UNK         0.0000 
     20 C20        -4.8018    9.7661   -8.0596 C.ar      1 UNK         0.0000 
     21 O21        -4.4352   13.5609   -6.3638 O.3       1 UNK         0.0000 
     22 C22        -3.6839   14.5445   -7.0766 C.3       1 UNK         0.0000 
     23 O23        -2.1928   12.1397   -6.9410 O.3       1 UNK         0.0000 
     24 C24        -1.0568   11.8071   -7.7386 C.3       1 UNK         0.0000 
     25 H25        -6.0865   12.2817   -9.8717 H         1 UNK         0.0000 
     26 H26        -8.1761   10.1266  -13.8989 H         1 UNK         0.0000 
     27 H27        -6.8862   12.2301  -14.1010 H         1 UNK         0.0000 
     28 H28        -8.9109    8.1585  -11.8401 H         1 UNK         0.0000 
     29 H29        -8.0978   10.5402   -7.5937 H         1 UNK         0.0000 
     30 H30        -7.4435    8.9306   -7.5162 H         1 UNK         0.0000 
     31 H31        -4.1544   12.8539  -10.8932 H         1 UNK         0.0000 
     32 H32        -2.4485   14.4035  -11.3387 H         1 UNK         0.0000 
     33 H33        -3.6772   15.4626  -10.6827 H         1 UNK         0.0000 
     34 H34        -3.4583   15.3250  -12.4323 H         1 UNK         0.0000 
     35 H35        -6.7296   12.3147   -6.9189 H         1 UNK         0.0000 
     36 H36        -2.6623    9.7270   -8.0552 H         1 UNK         0.0000 
     37 H37        -4.8859    8.7827   -8.5028 H         1 UNK         0.0000 
     38 H38        -3.6209   15.4399   -6.4624 H         1 UNK         0.0000 
     39 H39        -4.1459   14.7973   -8.0279 H         1 UNK         0.0000 
     40 H40        -2.6551   14.2645   -7.2771 H         1 UNK         0.0000 
     41 H41        -0.2132   12.3981   -7.3814 H         1 UNK         0.0000 
     42 H42        -1.2092   12.0638   -8.7945 H         1 UNK         0.0000 
     43 H43        -0.7777   10.7513   -7.6419 H         1 UNK         0.0000 
@<TRIPOS>BOND
     1    1    2 ar   
     2    1    4 ar   
     3    1   13 1    
     4    2    6 ar   
     5    2   25 1    
     6    3    4 ar   
     7    3    5 ar   
     8    3   26 1    
     9    4   27 1    
    10    5    6 ar   
    11    5    9 ar   
    12    6    7 ar   
    13    7    8 ar   
    14    7   10 1    
    15    8    9 ar   
    16    9   28 1    
    17   10   15 1    
    18   10   29 1    
    19   10   30 1    
    20   11   12 1    
    21   11   13 am   BACKBONE|DICT|INTERRES
    22   11   31 1    
    23   12   32 1    
    24   12   33 1    
    25   12   34 1    
    26   13   14 2    
    27   15   16 ar   
    28   15   20 ar   
    29   16   17 ar   
    30   16   35 1    
    31   17   18 ar   
    32   17   21 1    
    33   18   19 ar   
    34   18   23 1    
    35   19   20 ar   
    36   19   36 1    
    37   20   37 1    
    38   21   22 1    
    39   22   38 1    
    40   22   39 1    
    41   22   40 1    
    42   23   24 1    
    43   24   41 1    
    44   24   42 1    
    45   24   43 1    
@<TRIPOS>SUBSTRUCTURE
     1 UNK         1 GROUP             0       ****    0 ROOT    
