@<TRIPOS>MOLECULE
25
46   49    1
SMALL
USER_CHARGES


@<TRIPOS>ATOM
      1 C1         -6.3861   12.3623  -11.9697 C.ar      1 UNK         0.0000 
      2 C2         -6.5480   11.8020  -10.7080 C.ar      1 UNK         0.0000 
      3 C3         -7.6869   10.5726  -13.0325 C.ar      1 UNK         0.0000 
      4 C4         -6.9529   11.7665  -13.1047 C.ar      1 UNK         0.0000 
      5 C5         -7.8210   10.0086  -11.7556 C.ar      1 UNK         0.0000 
      6 C6         -7.2636   10.6177  -10.5919 C.ar      1 UNK         0.0000 
      7 C7         -7.6330    9.7421   -9.5104 C.ar      1 UNK         0.0000 
      8 N8         -8.3023    8.7332   -9.9897 N.2       1 UNK         0.0000 
      9 N9         -8.4342    8.8678  -11.3051 N.pl3     1 UNK         0.0000 
     10 C10        -7.3415    9.8758   -8.0215 C.3       1 UNK         0.0000 
     11 S11        -4.1211   13.8754  -11.2000 S.o2      1 UNK         0.0000 
     12 C12        -2.9188   12.5402  -11.7675 C.3       1 UNK         0.0000 
     13 N13        -5.6382   13.5428  -12.1051 N.pl3     1 UNK         0.0000 
     14 C14        -5.9683   10.4827   -7.7344 C.ar      1 UNK         0.0000 
     15 C15        -4.8123    9.7690   -8.0490 C.ar      1 UNK         0.0000 
     16 C16        -3.5592   10.3237   -7.7969 C.ar      1 UNK         0.0000 
     17 C17        -3.4543   11.5962   -7.2288 C.ar      1 UNK         0.0000 
     18 C18        -4.6126   12.3085   -6.9084 C.ar      1 UNK         0.0000 
     19 C19        -5.8671   11.7538   -7.1613 C.ar      1 UNK         0.0000 
     20 C20        -2.1058   12.1871   -6.9644 C.ar      1 UNK         0.0000 
     21 C21        -1.7745   13.4406   -6.4637 C.ar      1 UNK         0.0000 
     22 N22        -0.4394   13.4976   -6.4041 N.pl3     1 UNK         0.0000 
     23 N23         0.1691   12.4146   -6.8015 N.2       1 UNK         0.0000 
     24 C24        -0.8034   11.5995   -7.1773 C.ar      1 UNK         0.0000 
     25 C25         0.3694   14.6144   -5.9538 C.3       1 UNK         0.0000 
     26 O26        -3.6497   15.1720  -11.6865 O.2       1 UNK         0.0000 
     27 O27        -4.3650   13.6745   -9.7698 O.2       1 UNK         0.0000 
     28 H28        -6.1192   12.2649   -9.8433 H         1 UNK         0.0000 
     29 H29        -8.1122   10.1144  -13.9155 H         1 UNK         0.0000 
     30 H30        -6.8144   12.2368  -14.0685 H         1 UNK         0.0000 
     31 H31        -8.9325    8.1663  -11.8458 H         1 UNK         0.0000 
     32 H32        -7.4236    8.9164   -7.5059 H         1 UNK         0.0000 
     33 H33        -8.0908   10.5346   -7.5820 H         1 UNK         0.0000 
     34 H34        -1.9692   12.6827  -11.2486 H         1 UNK         0.0000 
     35 H35        -2.7669   12.6240  -12.8324 H         1 UNK         0.0000 
     36 H36        -3.3306   11.5652  -11.5235 H         1 UNK         0.0000 
     37 H37        -5.9058   14.2159  -12.8076 H         1 UNK         0.0000 
     38 H38        -4.8881    8.7864   -8.4918 H         1 UNK         0.0000 
     39 H39        -2.6674    9.7660   -8.0419 H         1 UNK         0.0000 
     40 H40        -4.5385   13.2901   -6.4661 H         1 UNK         0.0000 
     41 H41        -6.7582   12.3115   -6.9184 H         1 UNK         0.0000 
     42 H42        -2.3766   14.2799   -6.1559 H         1 UNK         0.0000 
     43 H43        -0.5994   10.6146   -7.5758 H         1 UNK         0.0000 
     44 H44         0.9849   14.2943   -5.1133 H         1 UNK         0.0000 
     45 H45        -0.2624   15.4490   -5.6481 H         1 UNK         0.0000 
     46 H46         1.0212   14.9347   -6.7673 H         1 UNK         0.0000 
@<TRIPOS>BOND
     1    1    2 ar   
     2    1    4 ar   
     3    1   13 1    
     4    2    6 ar   
     5    2   28 1    
     6    3    4 ar   
     7    3    5 ar   
     8    3   29 1    
     9    4   30 1    
    10    5    6 ar   
    11    5    9 ar   
    12    6    7 ar   
    13    7    8 ar   
    14    7   10 1    
    15    8    9 ar   
    16    9   31 1    
    17   10   14 1    
    18   10   32 1    
    19   10   33 1    
    20   11   12 1    
    21   11   13 1    
    22   11   26 2    
    23   11   27 2    
    24   12   34 1    
    25   12   35 1    
    26   12   36 1    
    27   13   37 1    
    28   14   15 ar   
    29   14   19 ar   
    30   15   16 ar   
    31   15   38 1    
    32   16   17 ar   
    33   16   39 1    
    34   17   18 ar   
    35   17   20 1    
    36   18   19 ar   
    37   18   40 1    
    38   19   41 1    
    39   20   21 ar   
    40   20   24 ar   
    41   21   22 ar   
    42   21   42 1    
    43   22   23 ar   
    44   22   25 1    
    45   23   24 ar   
    46   24   43 1    
    47   25   44 1    
    48   25   45 1    
    49   25   46 1    
@<TRIPOS>SUBSTRUCTURE
     1 UNK         1 GROUP             0       ****    0 ROOT    
