@<TRIPOS>MOLECULE
20
55   58    1
SMALL
USER_CHARGES


@<TRIPOS>ATOM
      1 C1         -6.3740   12.3524  -12.0161 C.ar      1 UNK         0.0000 
      2 C2         -6.5100   11.8065  -10.7374 C.ar      1 UNK         0.0000 
      3 C3         -7.7222   10.5841  -13.0265 C.ar      1 UNK         0.0000 
      4 C4         -6.9887   11.7756  -13.1353 C.ar      1 UNK         0.0000 
      5 C5         -7.8163   10.0177  -11.7563 C.ar      1 UNK         0.0000 
      6 C6         -7.2425   10.6185  -10.6022 C.ar      1 UNK         0.0000 
      7 C7         -7.6172    9.7487   -9.5090 C.ar      1 UNK         0.0000 
      8 N8         -8.2846    8.7289   -9.9848 N.2       1 UNK         0.0000 
      9 N9         -8.4176    8.8659  -11.2967 N.pl3     1 UNK         0.0000 
     10 C10        -7.3368    9.8884   -8.0257 C.3       1 UNK         0.0000 
     11 N11        -4.4023   13.6480  -11.4578 N.am      1 UNK         0.0000 
     12 C12        -3.4623   14.7747  -11.4948 C.3       1 UNK         0.0000 
     13 C13        -5.5331   13.6158  -12.1961 C.2       1 UNK         0.0000 
     14 O14        -5.8776   14.5022  -12.9731 O.2       1 UNK         0.0000 
     15 C15        -5.9585   10.4860   -7.7354 C.ar      1 UNK         0.0000 
     16 C16        -5.8494   11.7555   -7.1596 C.ar      1 UNK         0.0000 
     17 C17        -4.5968   12.3068   -6.9148 C.ar      1 UNK         0.0000 
     18 C18        -3.4468   11.5860   -7.2370 C.ar      1 UNK         0.0000 
     19 C19        -3.5513   10.3089   -7.8057 C.ar      1 UNK         0.0000 
     20 C20        -4.8090    9.7654   -8.0523 C.ar      1 UNK         0.0000 
     21 C21        -2.0901   12.1669   -6.9801 C.ar      1 UNK         0.0000 
     22 C22        -1.7479   13.4121   -6.4872 C.ar      1 UNK         0.0000 
     23 N23        -0.3990   13.4663   -6.4328 N.pl3     1 UNK         0.0000 
     24 N24         0.1869   12.3691   -6.8386 N.2       1 UNK         0.0000 
     25 C25        -0.8034   11.5628   -7.1902 C.ar      1 UNK         0.0000 
     26 C26         0.4389   14.5894   -5.9640 C.3       1 UNK         0.0000 
     27 C27         1.5042   14.2139   -4.8744 C.3       1 UNK         0.0000 
     28 O28         2.6302   13.6295   -5.4977 O.3       1 UNK         0.0000 
     29 C29         0.9501   13.1612   -3.9053 C.3       1 UNK         0.0000 
     30 C30         2.0179   15.4484   -4.1037 C.3       1 UNK         0.0000 
     31 H31        -6.0870   12.2815   -9.8767 H         1 UNK         0.0000 
     32 H32        -8.1782   10.1403  -13.8916 H         1 UNK         0.0000 
     33 H33        -6.8882   12.2326  -14.1065 H         1 UNK         0.0000 
     34 H34        -8.9139    8.1642  -11.8383 H         1 UNK         0.0000 
     35 H35        -7.4382    8.9312   -7.5247 H         1 UNK         0.0000 
     36 H36        -8.1000   10.5369   -7.5915 H         1 UNK         0.0000 
     37 H37        -4.1602   12.8736  -10.8739 H         1 UNK         0.0000 
     38 H38        -2.4435   14.3983  -11.3392 H         1 UNK         0.0000 
     39 H39        -3.6800   15.4678  -10.6811 H         1 UNK         0.0000 
     40 H40        -3.4649   15.3194  -12.4306 H         1 UNK         0.0000 
     41 H41        -6.7363   12.3155   -6.9060 H         1 UNK         0.0000 
     42 H42        -4.5225   13.2880   -6.4780 H         1 UNK         0.0000 
     43 H43        -2.6716    9.7462   -8.0565 H         1 UNK         0.0000 
     44 H44        -4.8874    8.7809   -8.4938 H         1 UNK         0.0000 
     45 H45        -2.3463   14.2645   -6.1724 H         1 UNK         0.0000 
     46 H46        -0.6294   10.5673   -7.5714 H         1 UNK         0.0000 
     47 H47        -0.2274   15.3656   -5.5864 H         1 UNK         0.0000 
     48 H48         0.9266   15.0143   -6.8422 H         1 UNK         0.0000 
     49 H49         3.2101   13.2860   -4.8126 H         1 UNK         0.0000 
     50 H50         0.6553   12.2750   -4.4689 H         1 UNK         0.0000 
     51 H51         0.0795   13.5454   -3.3665 H         1 UNK         0.0000 
     52 H52         1.6833   12.8594   -3.1584 H         1 UNK         0.0000 
     53 H53         2.5210   16.1617   -4.7561 H         1 UNK         0.0000 
     54 H54         2.7337   15.1648   -3.3313 H         1 UNK         0.0000 
     55 H55         1.2023   15.9748   -3.6071 H         1 UNK         0.0000 
@<TRIPOS>BOND
     1    1    2 ar   
     2    1    4 ar   
     3    1   13 1    
     4    2    6 ar   
     5    2   31 1    
     6    3    4 ar   
     7    3    5 ar   
     8    3   32 1    
     9    4   33 1    
    10    5    6 ar   
    11    5    9 ar   
    12    6    7 ar   
    13    7    8 ar   
    14    7   10 1    
    15    8    9 ar   
    16    9   34 1    
    17   10   15 1    
    18   10   35 1    
    19   10   36 1    
    20   11   12 1    
    21   11   13 am   BACKBONE|DICT|INTERRES
    22   11   37 1    
    23   12   38 1    
    24   12   39 1    
    25   12   40 1    
    26   13   14 2    
    27   15   16 ar   
    28   15   20 ar   
    29   16   17 ar   
    30   16   41 1    
    31   17   18 ar   
    32   17   42 1    
    33   18   19 ar   
    34   18   21 1    
    35   19   20 ar   
    36   19   43 1    
    37   20   44 1    
    38   21   22 ar   
    39   21   25 ar   
    40   22   23 ar   
    41   22   45 1    
    42   23   24 ar   
    43   23   26 1    
    44   24   25 ar   
    45   25   46 1    
    46   26   27 1    
    47   26   47 1    
    48   26   48 1    
    49   27   28 1    
    50   27   29 1    
    51   27   30 1    
    52   28   49 1    
    53   29   50 1    
    54   29   51 1    
    55   29   52 1    
    56   30   53 1    
    57   30   54 1    
    58   30   55 1    
@<TRIPOS>SUBSTRUCTURE
     1 UNK         1 GROUP             0       ****    0 ROOT    
