@<TRIPOS>MOLECULE
28
51   55    1
SMALL
USER_CHARGES


@<TRIPOS>ATOM
      1 C1         -6.4084   12.3297  -11.9887 C.ar      1 UNK         0.0000 
      2 C2         -6.5165   11.7544  -10.7314 C.ar      1 UNK         0.0000 
      3 C3         -7.7418   10.5517  -13.0215 C.ar      1 UNK         0.0000 
      4 C4         -7.0245   11.7463  -13.1093 C.ar      1 UNK         0.0000 
      5 C5         -7.8268    9.9859  -11.7428 C.ar      1 UNK         0.0000 
      6 C6         -7.2396   10.5800  -10.6042 C.ar      1 UNK         0.0000 
      7 C7         -7.6095    9.7151   -9.5092 C.ar      1 UNK         0.0000 
      8 N8         -8.2849    8.7010   -9.9773 N.2       1 UNK         0.0000 
      9 N9         -8.4373    8.8403  -11.2922 N.pl3     1 UNK         0.0000 
     10 C10        -7.3311    9.8727   -8.0225 C.3       1 UNK         0.0000 
     11 N11        -5.6734   13.4955  -12.1182 N.pl3     1 UNK         0.0000 
     12 C12        -5.9616   10.4819   -7.7358 C.ar      1 UNK         0.0000 
     13 C13        -4.8034    9.7678   -8.0459 C.ar      1 UNK         0.0000 
     14 C14        -3.5615   10.3255   -7.7934 C.ar      1 UNK         0.0000 
     15 C15        -3.4526   11.6006   -7.2315 C.ar      1 UNK         0.0000 
     16 C16        -4.6161   12.3136   -6.9153 C.ar      1 UNK         0.0000 
     17 C17        -5.8662   11.7565   -7.1617 C.ar      1 UNK         0.0000 
     18 C18        -2.1079   12.1894   -6.9634 C.ar      1 UNK         0.0000 
     19 C19        -1.7834   13.4363   -6.4469 C.ar      1 UNK         0.0000 
     20 N20        -0.4443   13.4911   -6.3955 N.pl3     1 UNK         0.0000 
     21 N21         0.1636   12.4174   -6.8067 N.2       1 UNK         0.0000 
     22 C22        -0.8107   11.6018   -7.1804 C.ar      1 UNK         0.0000 
     23 C23         0.3735   14.6113   -5.9298 C.3       1 UNK         0.0000 
     24 C24        -5.8857   14.5071  -13.1620 C.3       1 UNK         0.0000 
     25 C25        -4.6042   14.8313  -13.9092 C.3       1 UNK         0.0000 
     26 O26        -3.6374   15.2080  -12.9343 O.3       1 UNK         0.0000 
     27 C27        -3.2854   14.1223  -12.1198 C.3       1 UNK         0.0000 
     28 C28        -4.5109   13.8217  -11.2574 C.3       1 UNK         0.0000 
     29 H29        -6.0682   12.2161   -9.8713 H         1 UNK         0.0000 
     30 H30        -8.2010   10.1101  -13.8868 H         1 UNK         0.0000 
     31 H31        -6.9267   12.2174  -14.0767 H         1 UNK         0.0000 
     32 H32        -8.9595    8.1575  -11.8226 H         1 UNK         0.0000 
     33 H33        -8.0925   10.5250   -7.5864 H         1 UNK         0.0000 
     34 H34        -7.4209    8.9193   -7.5085 H         1 UNK         0.0000 
     35 H35        -4.8800    8.7854   -8.4838 H         1 UNK         0.0000 
     36 H36        -2.6672    9.7633   -8.0389 H         1 UNK         0.0000 
     37 H37        -4.5421   13.2992   -6.4778 H         1 UNK         0.0000 
     38 H38        -6.7571   12.3125   -6.9195 H         1 UNK         0.0000 
     39 H39        -2.3892   14.2694   -6.1271 H         1 UNK         0.0000 
     40 H40        -0.6149   10.6243   -7.5849 H         1 UNK         0.0000 
     41 H41         1.0200   14.9384   -6.7449 H         1 UNK         0.0000 
     42 H42         0.9846   14.2825   -5.0890 H         1 UNK         0.0000 
     43 H43        -0.2640   15.4377   -5.6195 H         1 UNK         0.0000 
     44 H44        -6.2295   15.4249  -12.6765 H         1 UNK         0.0000 
     45 H45        -6.6795   14.2190  -13.8644 H         1 UNK         0.0000 
     46 H46        -4.6857   15.5804  -14.6607 H         1 UNK         0.0000 
     47 H47        -4.3009   13.9383  -14.4740 H         1 UNK         0.0000 
     48 H48        -2.3629   14.3192  -11.5703 H         1 UNK         0.0000 
     49 H49        -3.0794   13.2286  -12.7328 H         1 UNK         0.0000 
     50 H50        -4.6912   14.6543  -10.5882 H         1 UNK         0.0000 
     51 H51        -4.2185   12.9480  -10.6599 H         1 UNK         0.0000 
@<TRIPOS>BOND
     1    1    2 ar   
     2    1    4 ar   
     3    1   11 1    
     4    2    6 ar   
     5    2   29 1    
     6    3    4 ar   
     7    3    5 ar   
     8    3   30 1    
     9    4   31 1    
    10    5    6 ar   
    11    5    9 ar   
    12    6    7 ar   
    13    7    8 ar   
    14    7   10 1    
    15    8    9 ar   
    16    9   32 1    
    17   10   12 1    
    18   10   33 1    
    19   10   34 1    
    20   11   24 1    
    21   11   28 1    
    22   12   13 ar   
    23   12   17 ar   
    24   13   14 ar   
    25   13   35 1    
    26   14   15 ar   
    27   14   36 1    
    28   15   16 ar   
    29   15   18 1    
    30   16   17 ar   
    31   16   37 1    
    32   17   38 1    
    33   18   19 ar   
    34   18   22 ar   
    35   19   20 ar   
    36   19   39 1    
    37   20   21 ar   
    38   20   23 1    
    39   21   22 ar   
    40   22   40 1    
    41   23   41 1    
    42   23   42 1    
    43   23   43 1    
    44   24   25 1    
    45   24   44 1    
    46   24   45 1    
    47   25   26 1    
    48   25   46 1    
    49   25   47 1    
    50   26   27 1    
    51   27   28 1    
    52   27   48 1    
    53   27   49 1    
    54   28   50 1    
    55   28   51 1    
@<TRIPOS>SUBSTRUCTURE
     1 UNK         1 GROUP             0       ****    0 ROOT    
