@<TRIPOS>MOLECULE
23
49   53    1
SMALL
USER_CHARGES


@<TRIPOS>ATOM
      1 C1         -6.3775   12.3296  -12.0018 C.ar      1 UNK         0.0000 
      2 C2         -6.5098   11.7629  -10.7403 C.ar      1 UNK         0.0000 
      3 C3         -7.7247   10.5660  -13.0266 C.ar      1 UNK         0.0000 
      4 C4         -6.9942   11.7487  -13.1193 C.ar      1 UNK         0.0000 
      5 C5         -7.8312   10.0057  -11.7538 C.ar      1 UNK         0.0000 
      6 C6         -7.2443   10.6021  -10.6070 C.ar      1 UNK         0.0000 
      7 C7         -7.6167    9.7449   -9.5151 C.ar      1 UNK         0.0000 
      8 N8         -8.2961    8.7374   -9.9786 N.2       1 UNK         0.0000 
      9 N9         -8.4404    8.8724  -11.2937 N.pl3     1 UNK         0.0000 
     10 C10        -7.3318    9.8946   -8.0252 C.3       1 UNK         0.0000 
     11 C11        -5.5478   13.5112  -12.1572 C.ar      1 UNK         0.0000 
     12 C12        -5.9707   10.4870   -7.7351 C.ar      1 UNK         0.0000 
     13 C13        -5.8642   11.7588   -7.1694 C.ar      1 UNK         0.0000 
     14 C14        -4.6019   12.3141   -6.9186 C.ar      1 UNK         0.0000 
     15 C15        -3.4503   11.5963   -7.2357 C.ar      1 UNK         0.0000 
     16 C16        -3.5604   10.3220   -7.8000 C.ar      1 UNK         0.0000 
     17 C17        -4.8213    9.7719   -8.0443 C.ar      1 UNK         0.0000 
     18 C18        -2.0996   12.1710   -6.9757 C.ar      1 UNK         0.0000 
     19 C19        -1.7487   13.4240   -6.4767 C.ar      1 UNK         0.0000 
     20 N20        -0.4123   13.4674   -6.4260 N.pl3     1 UNK         0.0000 
     21 N21         0.1713   12.3664   -6.8217 N.2       1 UNK         0.0000 
     22 C22        -0.8093   11.5624   -7.1930 C.ar      1 UNK         0.0000 
     23 C23         0.4224   14.5657   -5.9816 C.3       1 UNK         0.0000 
     24 N24        -5.6966   14.2423  -13.2612 N.ar      1 UNK         0.0000 
     25 C25        -4.9506   15.3153  -13.5405 C.ar      1 UNK         0.0000 
     26 C26        -3.9383   15.6899  -12.6782 C.ar      1 UNK         0.0000 
     27 C27        -3.7261   14.9536  -11.5366 C.ar      1 UNK         0.0000 
     28 C28        -4.5508   13.8769  -11.2437 C.ar      1 UNK         0.0000 
     29 N29        -2.6976   15.2614  -10.7139 N.pl3     1 UNK         0.0000 
     30 H30        -6.0413   12.2163   -9.8757 H         1 UNK         0.0000 
     31 H31        -8.1733   10.1082  -13.8992 H         1 UNK         0.0000 
     32 H32        -6.8809   12.2018  -14.0912 H         1 UNK         0.0000 
     33 H33        -8.9536    8.1815  -11.8284 H         1 UNK         0.0000 
     34 H34        -7.4130    8.9234   -7.5092 H         1 UNK         0.0000 
     35 H35        -8.0893   10.5342   -7.5733 H         1 UNK         0.0000 
     36 H36        -6.7528   12.3249   -6.9255 H         1 UNK         0.0000 
     37 H37        -4.5328   13.2988   -6.4768 H         1 UNK         0.0000 
     38 H38        -2.6748    9.7543   -8.0412 H         1 UNK         0.0000 
     39 H39        -4.8926    8.7851   -8.4839 H         1 UNK         0.0000 
     40 H40        -2.3413   14.2681   -6.1710 H         1 UNK         0.0000 
     41 H41        -0.6174   10.5819   -7.5829 H         1 UNK         0.0000 
     42 H42         1.0693   14.8635   -6.8057 H         1 UNK         0.0000 
     43 H43         1.0251   14.2426   -5.1445 H         1 UNK         0.0000 
     44 H44        -0.2033   15.4153   -5.6884 H         1 UNK         0.0000 
     45 H45        -5.1686   15.8110  -14.4274 H         1 UNK         0.0000 
     46 H46        -3.3134   16.5389  -12.9221 H         1 UNK         0.0000 
     47 H47        -4.3780   13.3123  -10.3528 H         1 UNK         0.0000 
     48 H48        -2.6917   14.8692   -9.7891 H         1 UNK         0.0000 
     49 H49        -2.2693   16.1577  -10.8793 H         1 UNK         0.0000 
@<TRIPOS>BOND
     1    1    2 ar   
     2    1    4 ar   
     3    1   11 1    
     4    2    6 ar   
     5    2   30 1    
     6    3    4 ar   
     7    3    5 ar   
     8    3   31 1    
     9    4   32 1    
    10    5    6 ar   
    11    5    9 ar   
    12    6    7 ar   
    13    7    8 ar   
    14    7   10 1    
    15    8    9 ar   
    16    9   33 1    
    17   10   12 1    
    18   10   34 1    
    19   10   35 1    
    20   11   24 ar   
    21   11   28 ar   
    22   12   13 ar   
    23   12   17 ar   
    24   13   14 ar   
    25   13   36 1    
    26   14   15 ar   
    27   14   37 1    
    28   15   16 ar   
    29   15   18 1    
    30   16   17 ar   
    31   16   38 1    
    32   17   39 1    
    33   18   19 ar   
    34   18   22 ar   
    35   19   20 ar   
    36   19   40 1    
    37   20   21 ar   
    38   20   23 1    
    39   21   22 ar   
    40   22   41 1    
    41   23   42 1    
    42   23   43 1    
    43   23   44 1    
    44   24   25 ar   
    45   25   26 ar   
    46   25   45 1    
    47   26   27 ar   
    48   26   46 1    
    49   27   28 ar   
    50   27   29 1    
    51   28   47 1    
    52   29   48 1    
    53   29   49 1    
@<TRIPOS>SUBSTRUCTURE
     1 UNK         1 GROUP             0       ****    0 ROOT    
