@<TRIPOS>MOLECULE
title: molecule 1
47   50    1
SMALL
USER_CHARGES


@<TRIPOS>ATOM
      1 C1         -2.2090   12.9420  -10.9700 C.3       1 UNK         0.0000 
      2 C2         -2.1900   14.4670  -10.9420 C.3       1 UNK         0.0000 
      3 C3         -3.6990   12.5880  -10.8380 C.3       1 UNK         0.0000 
      4 O4         -1.6830   12.4740  -12.1800 O.3       1 UNK         0.0000 
      5 C5         -3.5110   14.9140  -11.6090 C.3       1 UNK         0.0000 
      6 N6         -4.3440   13.7200  -11.5240 N.3       1 UNK         0.0000 
      7 C7         -6.3530   12.3600  -12.0340 C.3       1 UNK         0.0000 
      8 C8         -6.9730   11.7560  -13.1370 C.3       1 UNK         0.0000 
      9 C9         -7.7100   10.5630  -13.0340 C.3       1 UNK         0.0000 
     10 C10        -6.5000   11.8060  -10.7490 C.3       1 UNK         0.0000 
     11 O11        -6.8510   12.3070  -14.3820 O.3       1 UNK         0.0000 
     12 C12        -5.5380   13.6380  -12.2000 C.3       1 UNK         0.0000 
     13 O13        -5.9500   14.5440  -12.9180 O.3       1 UNK         0.0000 
     14 C14        -7.2310   10.6160  -10.6130 C.3       1 UNK         0.0000 
     15 C15        -7.8080   10.0110  -11.7520 C.3       1 UNK         0.0000 
     16 N16        -8.4200    8.8670  -11.2880 N.3       1 UNK         0.0000 
     17 N17        -8.2850    8.7400   -9.9760 N.3       1 UNK         0.0000 
     18 C18        -7.6050    9.7470   -9.5140 C.3       1 UNK         0.0000 
     19 C19        -7.3260    9.8950   -8.0240 C.3       1 UNK         0.0000 
     20 C20        -5.9600   10.4800   -7.7350 C.3       1 UNK         0.0000 
     21 C21        -4.8080    9.7600   -8.0490 C.3       1 UNK         0.0000 
     22 C22        -3.4360   11.5810   -7.2420 C.3       1 UNK         0.0000 
     23 C23        -4.5830   12.3060   -6.9230 C.3       1 UNK         0.0000 
     24 C24        -3.5480   10.3110   -7.8020 C.3       1 UNK         0.0000 
     25 C25        -5.8470   11.7540   -7.1670 C.3       1 UNK         0.0000 
     26 C26        -4.4650   13.6950   -6.3240 C.3       1 UNK         0.0000 
     27 H27        -1.6130   12.4840  -10.1620 H         1 UNK         0.0000 
     28 H28        -2.1550   14.8180   -9.9250 H         1 UNK         0.0000 
     29 H29        -1.3160   14.8980  -11.4570 H         1 UNK         0.0000 
     30 H30        -3.9460   12.5680   -9.7740 H         1 UNK         0.0000 
     31 H31        -3.8740   11.6020  -11.3000 H         1 UNK         0.0000 
     32 H32        -0.8320   12.8970  -12.3310 H         1 UNK         0.0000 
     33 H33        -3.3140   15.2100  -12.6380 H         1 UNK         0.0000 
     34 H34        -3.9410   15.7450  -11.0420 H         1 UNK         0.0000 
     35 H35        -8.1760   10.1010  -13.8960 H         1 UNK         0.0000 
     36 H36        -6.0590   12.2790   -9.8760 H         1 UNK         0.0000 
     37 H37        -7.3830   11.8570  -15.0460 H         1 UNK         0.0000 
     38 H38        -8.9260    8.1740  -11.8310 H         1 UNK         0.0000 
     39 H39        -8.0950   10.5280   -7.5800 H         1 UNK         0.0000 
     40 H40        -7.4230    8.9160   -7.5190 H         1 UNK         0.0000 
     41 H41        -4.8830    8.7770   -8.4900 H         1 UNK         0.0000 
     42 H42        -2.4580   12.0020   -7.0530 H         1 UNK         0.0000 
     43 H43        -2.6530    9.7490   -8.0470 H         1 UNK         0.0000 
     44 H44        -6.7370   12.3190   -6.9230 H         1 UNK         0.0000 
     45 H45        -3.5360   14.1750   -6.6300 H         1 UNK         0.0000 
     46 H46        -4.5030   13.6560   -5.2330 H         1 UNK         0.0000 
     47 H47        -5.2730   14.3300   -6.6810 H         1 UNK         0.0000 
@<TRIPOS>BOND
     1    1    2 1    
     2    1    3 1    
     3    1    4 1    
     4    1   27 1    
     5    2    5 1    
     6    2   28 1    
     7    2   29 1    
     8    3    6 1    
     9    3   30 1    
    10    3   31 1    
    11    4   32 1    
    12    5    6 1    
    13    5   33 1    
    14    5   34 1    
    15    6   12 1    
    16    7    8 1    
    17    7   10 1    
    18    7   12 1    
    19    8    9 1    
    20    8   11 1    
    21    9   15 1    
    22    9   35 1    
    23   10   14 1    
    24   10   36 1    
    25   11   37 1    
    26   12   13 1    
    27   14   15 1    
    28   14   18 1    
    29   15   16 1    
    30   16   17 1    
    31   16   38 1    
    32   17   18 1    
    33   18   19 1    
    34   19   20 1    
    35   19   39 1    
    36   19   40 1    
    37   20   21 1    
    38   20   25 1    
    39   21   24 1    
    40   21   41 1    
    41   22   23 1    
    42   22   24 1    
    43   22   42 1    
    44   23   25 1    
    45   23   26 1    
    46   24   43 1    
    47   25   44 1    
    48   26   45 1    
    49   26   46 1    
    50   26   47 1    
@<TRIPOS>SUBSTRUCTURE
     1 UNK         1 GROUP             0       ****    0 ROOT    
