@<TRIPOS>MOLECULE
19
45   48    1
SMALL
USER_CHARGES


@<TRIPOS>ATOM
      1 C1         -6.3863   12.3686  -12.0106 C.ar      1 UNK         0.0000 
      2 C2         -6.5303   11.8179  -10.7351 C.ar      1 UNK         0.0000 
      3 C3         -7.7274   10.5747  -13.0322 C.ar      1 UNK         0.0000 
      4 C4         -6.9939   11.7717  -13.1290 C.ar      1 UNK         0.0000 
      5 C5         -7.8233   10.0108  -11.7572 C.ar      1 UNK         0.0000 
      6 C6         -7.2504   10.6246  -10.6026 C.ar      1 UNK         0.0000 
      7 C7         -7.6148    9.7488   -9.5126 C.ar      1 UNK         0.0000 
      8 N8         -8.2772    8.7301   -9.9866 N.2       1 UNK         0.0000 
      9 N9         -8.4133    8.8585  -11.2996 N.pl3     1 UNK         0.0000 
     10 C10        -7.3367    9.8906   -8.0265 C.3       1 UNK         0.0000 
     11 N11        -4.3739   13.6178  -11.5022 N.am      1 UNK         0.0000 
     12 C12        -3.4056   14.7196  -11.5963 C.3       1 UNK         0.0000 
     13 C13        -5.5407   13.6198  -12.1903 C.2       1 UNK         0.0000 
     14 O14        -5.8948   14.5296  -12.9394 O.2       1 UNK         0.0000 
     15 C15        -5.9610   10.4852   -7.7361 C.ar      1 UNK         0.0000 
     16 C16        -4.8098    9.7648   -8.0558 C.ar      1 UNK         0.0000 
     17 C17        -3.5520   10.3132   -7.8064 C.ar      1 UNK         0.0000 
     18 C18        -3.4430   11.5871   -7.2363 C.ar      1 UNK         0.0000 
     19 C19        -4.5944   12.3027   -6.9144 C.ar      1 UNK         0.0000 
     20 C20        -5.8504   11.7539   -7.1603 C.ar      1 UNK         0.0000 
     21 C21        -2.0991   12.1752   -6.9687 C.ar      1 UNK         0.0000 
     22 C22        -1.7663   13.4191   -6.4362 C.ar      1 UNK         0.0000 
     23 N23        -0.4291   13.4776   -6.3870 N.pl3     1 UNK         0.0000 
     24 N24         0.1723   12.4029   -6.8190 N.2       1 UNK         0.0000 
     25 C25        -0.8029   11.5945   -7.2007 C.ar      1 UNK         0.0000 
     26 C26         0.3904   14.5868   -5.9117 C.3       1 UNK         0.0000 
     27 H27        -6.0929   12.2989   -9.8733 H         1 UNK         0.0000 
     28 H28        -8.1755   10.1118  -13.9031 H         1 UNK         0.0000 
     29 H29        -6.8667   12.2221  -14.1016 H         1 UNK         0.0000 
     30 H30        -8.9059    8.1512  -11.8355 H         1 UNK         0.0000 
     31 H31        -8.1020   10.5408   -7.5966 H         1 UNK         0.0000 
     32 H32        -7.4436    8.9262   -7.5252 H         1 UNK         0.0000 
     33 H33        -4.1038   12.8034  -10.9679 H         1 UNK         0.0000 
     34 H34        -2.8050   14.7371  -10.6877 H         1 UNK         0.0000 
     35 H35        -3.8600   15.7058  -11.7050 H         1 UNK         0.0000 
     36 H36        -2.7006   14.5748  -12.4189 H         1 UNK         0.0000 
     37 H37        -4.8910    8.7823   -8.5005 H         1 UNK         0.0000 
     38 H38        -2.6630    9.7506   -8.0539 H         1 UNK         0.0000 
     39 H39        -4.5131   13.2839   -6.4722 H         1 UNK         0.0000 
     40 H40        -6.7367   12.3149   -6.9092 H         1 UNK         0.0000 
     41 H41        -2.3680   14.2475   -6.0985 H         1 UNK         0.0000 
     42 H42        -0.6030   10.6174   -7.6170 H         1 UNK         0.0000 
     43 H43        -0.2329   15.4126   -5.5710 H         1 UNK         0.0000 
     44 H44         1.0372   14.9418   -6.7159 H         1 UNK         0.0000 
     45 H45         1.0194   14.2522   -5.0866 H         1 UNK         0.0000 
@<TRIPOS>BOND
     1    1    2 ar   
     2    1    4 ar   
     3    1   13 1    
     4    2    6 ar   
     5    2   27 1    
     6    3    4 ar   
     7    3    5 ar   
     8    3   28 1    
     9    4   29 1    
    10    5    6 ar   
    11    5    9 ar   
    12    6    7 ar   
    13    7    8 ar   
    14    7   10 1    
    15    8    9 ar   
    16    9   30 1    
    17   10   15 1    
    18   10   31 1    
    19   10   32 1    
    20   11   12 1    
    21   11   13 am   BACKBONE|DICT|INTERRES
    22   11   33 1    
    23   12   34 1    
    24   12   35 1    
    25   12   36 1    
    26   13   14 2    
    27   15   16 ar   
    28   15   20 ar   
    29   16   17 ar   
    30   16   37 1    
    31   17   18 ar   
    32   17   38 1    
    33   18   19 ar   
    34   18   21 1    
    35   19   20 ar   
    36   19   39 1    
    37   20   40 1    
    38   21   22 ar   
    39   21   25 ar   
    40   22   23 ar   
    41   22   41 1    
    42   23   24 ar   
    43   23   26 1    
    44   24   25 ar   
    45   25   42 1    
    46   26   43 1    
    47   26   44 1    
    48   26   45 1    
@<TRIPOS>SUBSTRUCTURE
     1 UNK         1 GROUP             0       ****    0 ROOT    
