@<TRIPOS>MOLECULE
24
45   48    1
SMALL
USER_CHARGES


@<TRIPOS>ATOM
      1 C1         -6.3515   12.3530  -11.9813 C.ar      1 UNK         0.0000 
      2 C2         -6.5085   11.7912  -10.7247 C.ar      1 UNK         0.0000 
      3 C3         -7.6802   10.5716  -13.0438 C.ar      1 UNK         0.0000 
      4 C4         -6.9296   11.7657  -13.1245 C.ar      1 UNK         0.0000 
      5 C5         -7.7980   10.0044  -11.7669 C.ar      1 UNK         0.0000 
      6 C6         -7.2328   10.6109  -10.5989 C.ar      1 UNK         0.0000 
      7 C7         -7.6209    9.7375   -9.5162 C.ar      1 UNK         0.0000 
      8 N8         -8.2754    8.7446   -9.9970 N.2       1 UNK         0.0000 
      9 N9         -8.4233    8.8800  -11.3218 N.pl3     1 UNK         0.0000 
     10 C10        -7.3328    9.8812   -8.0296 C.3       1 UNK         0.0000 
     11 C11        -5.3004   14.2773  -13.1499 C.2       1 UNK         0.0000 
     12 C12        -4.4346   15.5261  -12.8998 C.3       1 UNK         0.0000 
     13 N13        -5.5896   13.5586  -12.0343 N.am      1 UNK         0.0000 
     14 C14        -5.9706   10.4906   -7.7317 C.ar      1 UNK         0.0000 
     15 C15        -5.8616   11.7632   -7.1684 C.ar      1 UNK         0.0000 
     16 C16        -4.6051   12.3126   -6.9180 C.ar      1 UNK         0.0000 
     17 C17        -3.4544   11.5948   -7.2294 C.ar      1 UNK         0.0000 
     18 C18        -3.5626   10.3128   -7.8011 C.ar      1 UNK         0.0000 
     19 C19        -4.8160    9.7710   -8.0425 C.ar      1 UNK         0.0000 
     20 C20        -2.1083   12.1736   -6.9694 C.ar      1 UNK         0.0000 
     21 C21        -1.7503   13.4247   -6.4858 C.ar      1 UNK         0.0000 
     22 N22        -0.4131   13.4674   -6.4189 N.pl3     1 UNK         0.0000 
     23 N23         0.1758   12.3735   -6.8057 N.2       1 UNK         0.0000 
     24 C24        -0.8094   11.5620   -7.1791 C.ar      1 UNK         0.0000 
     25 C25         0.4060   14.5705   -5.9896 C.3       1 UNK         0.0000 
     26 O26        -5.6528   14.0066  -14.2746 O.2       1 UNK         0.0000 
     27 H27        -6.0624   12.2581   -9.8612 H         1 UNK         0.0000 
     28 H28        -8.1172   10.1173  -13.9162 H         1 UNK         0.0000 
     29 H29        -6.8256   12.2012  -14.0958 H         1 UNK         0.0000 
     30 H30        -8.9432    8.1901  -11.8473 H         1 UNK         0.0000 
     31 H31        -8.0986   10.5389   -7.5828 H         1 UNK         0.0000 
     32 H32        -7.4252    8.9299   -7.5158 H         1 UNK         0.0000 
     33 H33        -4.1820   15.6085  -11.8419 H         1 UNK         0.0000 
     34 H34        -4.9911   16.4102  -13.1903 H         1 UNK         0.0000 
     35 H35        -3.4935   15.4841  -13.4268 H         1 UNK         0.0000 
     36 H36        -5.2195   13.8866  -11.1438 H         1 UNK         0.0000 
     37 H37        -6.7535   12.3213   -6.9230 H         1 UNK         0.0000 
     38 H38        -4.5307   13.2966   -6.4786 H         1 UNK         0.0000 
     39 H39        -2.6732    9.7534   -8.0369 H         1 UNK         0.0000 
     40 H40        -4.8952    8.7834   -8.4850 H         1 UNK         0.0000 
     41 H41        -2.3455   14.2746   -6.1808 H         1 UNK         0.0000 
     42 H42        -0.6187   10.5735   -7.5589 H         1 UNK         0.0000 
     43 H43        -0.2064   15.4259   -5.7003 H         1 UNK         0.0000 
     44 H44         1.0748   14.8695   -6.8055 H         1 UNK         0.0000 
     45 H45         1.0202   14.2589   -5.1325 H         1 UNK         0.0000 
@<TRIPOS>BOND
     1    1    2 ar   
     2    1    4 ar   
     3    1   13 1    
     4    2    6 ar   
     5    2   27 1    
     6    3    4 ar   
     7    3    5 ar   
     8    3   28 1    
     9    4   29 1    
    10    5    6 ar   
    11    5    9 ar   
    12    6    7 ar   
    13    7    8 ar   
    14    7   10 1    
    15    8    9 ar   
    16    9   30 1    
    17   10   14 1    
    18   10   31 1    
    19   10   32 1    
    20   11   12 1    
    21   11   13 am   BACKBONE|DICT|INTERRES
    22   11   26 2    
    23   12   33 1    
    24   12   34 1    
    25   12   35 1    
    26   13   36 1    
    27   14   15 ar   
    28   14   19 ar   
    29   15   16 ar   
    30   15   37 1    
    31   16   17 ar   
    32   16   38 1    
    33   17   18 ar   
    34   17   20 1    
    35   18   19 ar   
    36   18   39 1    
    37   19   40 1    
    38   20   21 ar   
    39   20   24 ar   
    40   21   22 ar   
    41   21   41 1    
    42   22   23 ar   
    43   22   25 1    
    44   23   24 ar   
    45   24   42 1    
    46   25   43 1    
    47   25   44 1    
    48   25   45 1    
@<TRIPOS>SUBSTRUCTURE
     1 UNK         1 GROUP             0       ****    0 ROOT    
