@<TRIPOS>MOLECULE
22
48   52    1
SMALL
USER_CHARGES


@<TRIPOS>ATOM
      1 C1         -6.3943   12.3306  -11.9839 C.ar      1 UNK         0.0000 
      2 C2         -6.5449   11.7624  -10.7224 C.ar      1 UNK         0.0000 
      3 C3         -7.7389   10.5318  -13.0493 C.ar      1 UNK         0.0000 
      4 C4         -6.9892   11.7416  -13.1218 C.ar      1 UNK         0.0000 
      5 C5         -7.8445    9.9757  -11.7834 C.ar      1 UNK         0.0000 
      6 C6         -7.2758   10.5697  -10.6136 C.ar      1 UNK         0.0000 
      7 C7         -7.6401    9.7111   -9.5254 C.ar      1 UNK         0.0000 
      8 N8         -8.3075    8.6850  -10.0132 N.2       1 UNK         0.0000 
      9 N9         -8.4539    8.8245  -11.3160 N.pl3     1 UNK         0.0000 
     10 C10        -7.3472    9.8680   -8.0446 C.3       1 UNK         0.0000 
     11 C11        -5.5569   13.6094  -12.1739 C.ar      1 UNK         0.0000 
     12 C12        -5.9691   10.4796   -7.7443 C.ar      1 UNK         0.0000 
     13 C13        -5.8622   11.7497   -7.1624 C.ar      1 UNK         0.0000 
     14 C14        -4.6000   12.2988   -6.9070 C.ar      1 UNK         0.0000 
     15 C15        -3.4496   11.5829   -7.2293 C.ar      1 UNK         0.0000 
     16 C16        -3.5554   10.3089   -7.8035 C.ar      1 UNK         0.0000 
     17 C17        -4.8209    9.7667   -8.0554 C.ar      1 UNK         0.0000 
     18 C18        -2.0956   12.1660   -6.9654 C.ar      1 UNK         0.0000 
     19 C19        -1.7384   13.4130   -6.4683 C.ar      1 UNK         0.0000 
     20 N20        -0.4069   13.4502   -6.4129 N.pl3     1 UNK         0.0000 
     21 N21         0.1813   12.3566   -6.8171 N.2       1 UNK         0.0000 
     22 C22        -0.7988   11.5478   -7.1867 C.ar      1 UNK         0.0000 
     23 C23         0.4282   14.5550   -5.9664 C.3       1 UNK         0.0000 
     24 N24        -4.7714   14.2106  -11.2027 N.pl3     1 UNK         0.0000 
     25 C25        -4.2061   15.2849  -11.7862 C.ar      1 UNK         0.0000 
     26 C26        -4.6883   15.3268  -13.0997 C.ar      1 UNK         0.0000 
     27 N27        -5.5027   14.2765  -13.3098 N.2       1 UNK         0.0000 
     28 C28        -4.5364   13.8232   -9.7989 C.3       1 UNK         0.0000 
     29 H29        -6.1220   12.1694   -9.8642 H         1 UNK         0.0000 
     30 H30        -8.1658   10.0922  -13.9365 H         1 UNK         0.0000 
     31 H31        -6.8689   12.2077  -14.0813 H         1 UNK         0.0000 
     32 H32        -8.9525    8.1221  -11.8662 H         1 UNK         0.0000 
     33 H33        -7.4314    8.9174   -7.5157 H         1 UNK         0.0000 
     34 H34        -8.0944   10.5330   -7.6015 H         1 UNK         0.0000 
     35 H35        -6.7507   12.3127   -6.9154 H         1 UNK         0.0000 
     36 H36        -4.5195   13.2804   -6.4580 H         1 UNK         0.0000 
     37 H37        -2.6726    9.7529   -8.0470 H         1 UNK         0.0000 
     38 H38        -4.8924    8.7835   -8.5028 H         1 UNK         0.0000 
     39 H39        -2.3320   14.2647   -6.1602 H         1 UNK         0.0000 
     40 H40        -0.6146   10.5716   -7.5810 H         1 UNK         0.0000 
     41 H41         1.0432   14.2275   -5.1327 H         1 UNK         0.0000 
     42 H42        -0.1881   15.4011   -5.6571 H         1 UNK         0.0000 
     43 H43         1.0785   14.8647   -6.7815 H         1 UNK         0.0000 
     44 H44        -3.5385   15.9338  -11.2484 H         1 UNK         0.0000 
     45 H45        -4.4386   16.0565  -13.8570 H         1 UNK         0.0000 
     46 H46        -4.0519   14.6585   -9.2909 H         1 UNK         0.0000 
     47 H47        -3.8437   12.9692   -9.7547 H         1 UNK         0.0000 
     48 H48        -5.4214   13.7994   -9.1880 H         1 UNK         0.0000 
@<TRIPOS>BOND
     1    1    2 ar   
     2    1    4 ar   
     3    1   11 1    
     4    2    6 ar   
     5    2   29 1    
     6    3    4 ar   
     7    3    5 ar   
     8    3   30 1    
     9    4   31 1    
    10    5    6 ar   
    11    5    9 ar   
    12    6    7 ar   
    13    7    8 ar   
    14    7   10 1    
    15    8    9 ar   
    16    9   32 1    
    17   10   12 1    
    18   10   33 1    
    19   10   34 1    
    20   11   24 ar   
    21   11   27 ar   
    22   12   13 ar   
    23   12   17 ar   
    24   13   14 ar   
    25   13   35 1    
    26   14   15 ar   
    27   14   36 1    
    28   15   16 ar   
    29   15   18 1    
    30   16   17 ar   
    31   16   37 1    
    32   17   38 1    
    33   18   19 ar   
    34   18   22 ar   
    35   19   20 ar   
    36   19   39 1    
    37   20   21 ar   
    38   20   23 1    
    39   21   22 ar   
    40   22   40 1    
    41   23   41 1    
    42   23   42 1    
    43   23   43 1    
    44   24   25 ar   
    45   24   28 1    
    46   25   26 ar   
    47   25   44 1    
    48   26   27 ar   
    49   26   45 1    
    50   28   46 1    
    51   28   47 1    
    52   28   48 1    
@<TRIPOS>SUBSTRUCTURE
     1 UNK         1 GROUP             0       ****    0 ROOT    
