@<TRIPOS>MOLECULE
31
53   57    1
SMALL
USER_CHARGES


@<TRIPOS>ATOM
      1 C1         -6.3709   12.3579  -12.0062 C.ar      1 UNK         0.0000 
      2 C2         -6.5187   11.8083  -10.7296 C.ar      1 UNK         0.0000 
      3 C3         -7.7194   10.5704  -13.0321 C.ar      1 UNK         0.0000 
      4 C4         -6.9838   11.7645  -13.1240 C.ar      1 UNK         0.0000 
      5 C5         -7.8186   10.0073  -11.7576 C.ar      1 UNK         0.0000 
      6 C6         -7.2434   10.6206  -10.5991 C.ar      1 UNK         0.0000 
      7 C7         -7.6160    9.7494   -9.5117 C.ar      1 UNK         0.0000 
      8 N8         -8.2808    8.7336   -9.9894 N.2       1 UNK         0.0000 
      9 N9         -8.4141    8.8594  -11.3008 N.pl3     1 UNK         0.0000 
     10 C10        -7.3385    9.8886   -8.0248 C.3       1 UNK         0.0000 
     11 N11        -4.3631   13.7190  -11.4993 N.am      1 UNK         0.0000 
     12 C12        -5.5500   13.6364  -12.1907 C.2       1 UNK         0.0000 
     13 O13        -5.9462   14.5251  -12.9474 O.2       1 UNK         0.0000 
     14 C14        -5.9607   10.4852   -7.7356 C.ar      1 UNK         0.0000 
     15 C15        -4.8097    9.7639   -8.0527 C.ar      1 UNK         0.0000 
     16 C16        -3.5522   10.3124   -7.8024 C.ar      1 UNK         0.0000 
     17 C17        -3.4444   11.5885   -7.2376 C.ar      1 UNK         0.0000 
     18 C18        -4.5952   12.3052   -6.9174 C.ar      1 UNK         0.0000 
     19 C19        -5.8509   11.7557   -7.1626 C.ar      1 UNK         0.0000 
     20 C20        -2.1000   12.1783   -6.9759 C.ar      1 UNK         0.0000 
     21 C21        -1.7654   13.4353   -6.4786 C.ar      1 UNK         0.0000 
     22 N22        -0.4305   13.4892   -6.4172 N.pl3     1 UNK         0.0000 
     23 N23         0.1699   12.4025   -6.8093 N.2       1 UNK         0.0000 
     24 C24        -0.8029   11.5856   -7.1770 C.ar      1 UNK         0.0000 
     25 C25         0.3883   14.6074   -5.9669 C.3       1 UNK         0.0000 
     26 C26        -3.5134   14.9066  -11.6049 C.3       1 UNK         0.0000 
     27 C27        -2.2037   14.4678  -10.9376 C.3       1 UNK         0.0000 
     28 C28        -2.2231   12.9442  -10.9826 C.3       1 UNK         0.0000 
     29 C29        -3.7200   12.5740  -10.8214 C.3       1 UNK         0.0000 
     30 O30        -1.0475   15.0410  -11.4860 O.3       1 UNK         0.0000 
     31 H31        -6.0905   12.2941   -9.8658 H         1 UNK         0.0000 
     32 H32        -8.1712   10.1113  -13.9056 H         1 UNK         0.0000 
     33 H33        -6.8587   12.2252  -14.0930 H         1 UNK         0.0000 
     34 H34        -8.9068    8.1511  -11.8353 H         1 UNK         0.0000 
     35 H35        -8.1007   10.5426   -7.5968 H         1 UNK         0.0000 
     36 H36        -7.4435    8.9253   -7.5227 H         1 UNK         0.0000 
     37 H37        -4.8934    8.7808   -8.4968 H         1 UNK         0.0000 
     38 H38        -2.6611    9.7503   -8.0475 H         1 UNK         0.0000 
     39 H39        -4.5122   13.2860   -6.4777 H         1 UNK         0.0000 
     40 H40        -6.7378   12.3164   -6.9148 H         1 UNK         0.0000 
     41 H41        -2.3612   14.2786   -6.1713 H         1 UNK         0.0000 
     42 H42        -0.6010   10.5907   -7.5580 H         1 UNK         0.0000 
     43 H43        -0.2314   15.4494   -5.6631 H         1 UNK         0.0000 
     44 H44         1.0518   14.9316   -6.7715 H         1 UNK         0.0000 
     45 H45         1.0048   14.2986   -5.1213 H         1 UNK         0.0000 
     46 H46        -3.3147   15.1479  -12.6510 H         1 UNK         0.0000 
     47 H47        -3.9414   15.7669  -11.0946 H         1 UNK         0.0000 
     48 H48        -2.2172   14.7609   -9.8839 H         1 UNK         0.0000 
     49 H49        -1.8304   12.6225  -11.9538 H         1 UNK         0.0000 
     50 H50        -1.5481   12.4842  -10.2524 H         1 UNK         0.0000 
     51 H51        -3.9432   12.6118   -9.7567 H         1 UNK         0.0000 
     52 H52        -3.9036   11.5934  -11.2745 H         1 UNK         0.0000 
     53 H53        -1.2694   15.5207  -12.3068 H         1 UNK         0.0000 
@<TRIPOS>BOND
     1    1    2 ar   
     2    1    4 ar   
     3    1   12 1    
     4    2    6 ar   
     5    2   31 1    
     6    3    4 ar   
     7    3    5 ar   
     8    3   32 1    
     9    4   33 1    
    10    5    6 ar   
    11    5    9 ar   
    12    6    7 ar   
    13    7    8 ar   
    14    7   10 1    
    15    8    9 ar   
    16    9   34 1    
    17   10   14 1    
    18   10   35 1    
    19   10   36 1    
    20   11   12 am   BACKBONE|DICT|INTERRES
    21   11   26 1    
    22   11   29 1    
    23   12   13 2    
    24   14   15 ar   
    25   14   19 ar   
    26   15   16 ar   
    27   15   37 1    
    28   16   17 ar   
    29   16   38 1    
    30   17   18 ar   
    31   17   20 1    
    32   18   19 ar   
    33   18   39 1    
    34   19   40 1    
    35   20   21 ar   
    36   20   24 ar   
    37   21   22 ar   
    38   21   41 1    
    39   22   23 ar   
    40   22   25 1    
    41   23   24 ar   
    42   24   42 1    
    43   25   43 1    
    44   25   44 1    
    45   25   45 1    
    46   26   27 1    
    47   26   46 1    
    48   26   47 1    
    49   27   28 1    
    50   27   30 1    
    51   27   48 1    
    52   28   29 1    
    53   28   49 1    
    54   28   50 1    
    55   29   51 1    
    56   29   52 1    
    57   30   53 1    
@<TRIPOS>SUBSTRUCTURE
     1 UNK         1 GROUP             0       ****    0 ROOT    
