@<TRIPOS>MOLECULE
43
48   52    1
SMALL
USER_CHARGES


@<TRIPOS>ATOM
      1 C1         -6.3694   12.3608  -12.0100 C.ar      1 UNK         0.0000 
      2 C2         -6.5170   11.8053  -10.7333 C.ar      1 UNK         0.0000 
      3 C3         -7.7298   10.5799  -13.0278 C.ar      1 UNK         0.0000 
      4 C4         -6.9915   11.7687  -13.1228 C.ar      1 UNK         0.0000 
      5 C5         -7.8213   10.0100  -11.7550 C.ar      1 UNK         0.0000 
      6 C6         -7.2397   10.6196  -10.6003 C.ar      1 UNK         0.0000 
      7 C7         -7.6092    9.7471   -9.5124 C.ar      1 UNK         0.0000 
      8 N8         -8.2773    8.7308   -9.9855 N.2       1 UNK         0.0000 
      9 N9         -8.4143    8.8607  -11.2979 N.pl3     1 UNK         0.0000 
     10 C10        -7.3268    9.8907   -8.0257 C.3       1 UNK         0.0000 
     11 N11        -4.3565   13.7183  -11.5055 N.am      1 UNK         0.0000 
     12 C12        -5.5483   13.6363  -12.1897 C.2       1 UNK         0.0000 
     13 O13        -5.9477   14.5322  -12.9368 O.2       1 UNK         0.0000 
     14 C14        -5.9513   10.4999   -7.7281 C.ar      1 UNK         0.0000 
     15 C15        -5.8738   11.7695   -7.1531 C.ar      1 UNK         0.0000 
     16 C16        -4.6094   12.3134   -6.9136 C.ar      1 UNK         0.0000 
     17 C17        -3.4376   11.5622   -7.2444 C.ar      1 UNK         0.0000 
     18 C18        -3.5099   10.2841   -7.8101 C.ar      1 UNK         0.0000 
     19 C19        -4.7961    9.7769   -8.0457 C.ar      1 UNK         0.0000 
     20 C20        -4.0914   13.5427   -6.3707 C.ar      1 UNK         0.0000 
     21 N21        -2.7880   13.5314   -6.3772 N.2       1 UNK         0.0000 
     22 N22        -2.3819   12.3721   -6.8788 N.pl3     1 UNK         0.0000 
     23 C23        -0.9505   12.1058   -6.9728 C.3       1 UNK         0.0000 
     24 C24        -3.7111   12.5665  -10.8449 C.3       1 UNK         0.0000 
     25 C25        -2.2188   12.9372  -10.9792 C.3       1 UNK         0.0000 
     26 C26        -2.1852   14.4611  -10.9536 C.3       1 UNK         0.0000 
     27 C27        -3.5089   14.9092  -11.5986 C.3       1 UNK         0.0000 
     28 F28        -1.7019   12.4742  -12.1199 F         1 UNK         0.0000 
     29 F29        -1.4726   12.4435   -9.9943 F         1 UNK         0.0000 
     30 H30        -6.0887   12.2893   -9.8700 H         1 UNK         0.0000 
     31 H31        -8.1938   10.1290  -13.8927 H         1 UNK         0.0000 
     32 H32        -6.8742   12.2301  -14.0952 H         1 UNK         0.0000 
     33 H33        -8.9091    8.1541  -11.8345 H         1 UNK         0.0000 
     34 H34        -8.0898   10.5513   -7.6049 H         1 UNK         0.0000 
     35 H35        -7.4625    8.9415   -7.5064 H         1 UNK         0.0000 
     36 H36        -6.7657   12.3184   -6.9082 H         1 UNK         0.0000 
     37 H37        -2.6226    9.7123   -8.0525 H         1 UNK         0.0000 
     38 H38        -4.9028    8.7968   -8.4854 H         1 UNK         0.0000 
     39 H39        -4.6421   14.3891   -5.9955 H         1 UNK         0.0000 
     40 H40        -0.3702   12.9568   -6.6055 H         1 UNK         0.0000 
     41 H41        -0.6665   11.9284   -8.0015 H         1 UNK         0.0000 
     42 H42        -0.7037   11.2249   -6.3851 H         1 UNK         0.0000 
     43 H43        -3.9410   12.5478   -9.7815 H         1 UNK         0.0000 
     44 H44        -3.8926   11.6034  -11.3224 H         1 UNK         0.0000 
     45 H45        -2.1199   14.8153   -9.9199 H         1 UNK         0.0000 
     46 H46        -1.3204   14.8723  -11.4772 H         1 UNK         0.0000 
     47 H47        -3.3224   15.2093  -12.6316 H         1 UNK         0.0000 
     48 H48        -3.9605   15.7276  -11.0393 H         1 UNK         0.0000 
@<TRIPOS>BOND
     1    1    2 ar   
     2    1    4 ar   
     3    1   12 1    
     4    2    6 ar   
     5    2   30 1    
     6    3    4 ar   
     7    3    5 ar   
     8    3   31 1    
     9    4   32 1    
    10    5    6 ar   
    11    5    9 ar   
    12    6    7 ar   
    13    7    8 ar   
    14    7   10 1    
    15    8    9 ar   
    16    9   33 1    
    17   10   14 1    
    18   10   34 1    
    19   10   35 1    
    20   11   12 am   BACKBONE|DICT|INTERRES
    21   11   24 1    
    22   11   27 1    
    23   12   13 2    
    24   14   15 ar   
    25   14   19 ar   
    26   15   16 ar   
    27   15   36 1    
    28   16   17 ar   
    29   16   20 ar   
    30   17   18 ar   
    31   17   22 ar   
    32   18   19 ar   
    33   18   37 1    
    34   19   38 1    
    35   20   21 ar   
    36   20   39 1    
    37   21   22 ar   
    38   22   23 1    
    39   23   40 1    
    40   23   41 1    
    41   23   42 1    
    42   24   25 1    
    43   24   43 1    
    44   24   44 1    
    45   25   26 1    
    46   25   28 1    
    47   25   29 1    
    48   26   27 1    
    49   26   45 1    
    50   26   46 1    
    51   27   47 1    
    52   27   48 1    
@<TRIPOS>SUBSTRUCTURE
     1 UNK         1 GROUP             0       ****    0 ROOT    
