@<TRIPOS>MOLECULE
33
49   53    1
SMALL
USER_CHARGES


@<TRIPOS>ATOM
      1 C1         -6.3918   12.3765  -12.0158 C.ar      1 UNK         0.0000 
      2 C2         -6.5335   11.8201  -10.7317 C.ar      1 UNK         0.0000 
      3 C3         -7.7273   10.5795  -13.0319 C.ar      1 UNK         0.0000 
      4 C4         -7.0082   11.7773  -13.1176 C.ar      1 UNK         0.0000 
      5 C5         -7.8294   10.0116  -11.7546 C.ar      1 UNK         0.0000 
      6 C6         -7.2533   10.6299  -10.5984 C.ar      1 UNK         0.0000 
      7 C7         -7.6133    9.7501   -9.5115 C.ar      1 UNK         0.0000 
      8 N8         -8.2802    8.7340   -9.9853 N.2       1 UNK         0.0000 
      9 N9         -8.4149    8.8602  -11.2994 N.pl3     1 UNK         0.0000 
     10 C10        -7.3368    9.8898   -8.0240 C.3       1 UNK         0.0000 
     11 N11        -4.3580   13.5891  -11.5451 N.am      1 UNK         0.0000 
     12 C12        -5.5327   13.6029  -12.2131 C.2       1 UNK         0.0000 
     13 O13        -5.8791   14.5089  -12.9726 O.2       1 UNK         0.0000 
     14 C14        -5.9622   10.4818   -7.7351 C.ar      1 UNK         0.0000 
     15 C15        -5.8525   11.7570   -7.1642 C.ar      1 UNK         0.0000 
     16 C16        -4.5920   12.3049   -6.9193 C.ar      1 UNK         0.0000 
     17 C17        -3.4386   11.5825   -7.2408 C.ar      1 UNK         0.0000 
     18 C18        -3.5579   10.3128   -7.8038 C.ar      1 UNK         0.0000 
     19 C19        -4.8126    9.7642   -8.0521 C.ar      1 UNK         0.0000 
     20 C20        -2.0919   12.1643   -6.9829 C.ar      1 UNK         0.0000 
     21 C21        -1.7362   13.4287   -6.5051 C.ar      1 UNK         0.0000 
     22 N22        -0.4017   13.4552   -6.4435 N.pl3     1 UNK         0.0000 
     23 N23         0.1850   12.3496   -6.8156 N.2       1 UNK         0.0000 
     24 C24        -0.8078   11.5460   -7.1722 C.ar      1 UNK         0.0000 
     25 C25         0.4351   14.5688   -6.0125 C.3       1 UNK         0.0000 
     26 C26        -3.3172   14.5865  -11.7755 C.3       1 UNK         0.0000 
     27 C27        -1.8924   14.0513  -11.7355 C.3       1 UNK         0.0000 
     28 C28        -2.3932   14.9579  -10.6450 C.3       1 UNK         0.0000 
     29 H29        -6.0761   12.2984   -9.8711 H         1 UNK         0.0000 
     30 H30        -8.1698   10.1086  -13.9039 H         1 UNK         0.0000 
     31 H31        -6.8733   12.2288  -14.0942 H         1 UNK         0.0000 
     32 H32        -8.9079    8.1545  -11.8361 H         1 UNK         0.0000 
     33 H33        -8.0997   10.5389   -7.5945 H         1 UNK         0.0000 
     34 H34        -7.4394    8.9219   -7.5215 H         1 UNK         0.0000 
     35 H35        -4.1267   12.7910  -10.9599 H         1 UNK         0.0000 
     36 H36        -6.7395   12.3169   -6.9150 H         1 UNK         0.0000 
     37 H37        -4.5095   13.2881   -6.4791 H         1 UNK         0.0000 
     38 H38        -2.6661    9.7465   -8.0484 H         1 UNK         0.0000 
     39 H39        -4.8936    8.7803   -8.4947 H         1 UNK         0.0000 
     40 H40        -2.3246   14.2793   -6.2163 H         1 UNK         0.0000 
     41 H41        -0.6152   10.5460   -7.5374 H         1 UNK         0.0000 
     42 H42        -0.1734   15.4251   -5.7269 H         1 UNK         0.0000 
     43 H43         1.1032   14.8639   -6.8228 H         1 UNK         0.0000 
     44 H44         1.0431   14.2630   -5.1616 H         1 UNK         0.0000 
     45 H45        -3.5076   15.3404  -12.5551 H         1 UNK         0.0000 
     46 H46        -1.1365   14.4228  -12.4281 H         1 UNK         0.0000 
     47 H47        -1.7094   13.0055  -11.4933 H         1 UNK         0.0000 
     48 H48        -2.5847   14.5469   -9.6579 H         1 UNK         0.0000 
     49 H49        -1.9864   15.9623  -10.6317 H         1 UNK         0.0000 
@<TRIPOS>BOND
     1    1    2 ar   
     2    1    4 ar   
     3    1   12 1    
     4    2    6 ar   
     5    2   29 1    
     6    3    4 ar   
     7    3    5 ar   
     8    3   30 1    
     9    4   31 1    
    10    5    6 ar   
    11    5    9 ar   
    12    6    7 ar   
    13    7    8 ar   
    14    7   10 1    
    15    8    9 ar   
    16    9   32 1    
    17   10   14 1    
    18   10   33 1    
    19   10   34 1    
    20   11   12 am   BACKBONE|DICT|INTERRES
    21   11   26 1    
    22   11   35 1    
    23   12   13 2    
    24   14   15 ar   
    25   14   19 ar   
    26   15   16 ar   
    27   15   36 1    
    28   16   17 ar   
    29   16   37 1    
    30   17   18 ar   
    31   17   20 1    
    32   18   19 ar   
    33   18   38 1    
    34   19   39 1    
    35   20   21 ar   
    36   20   24 ar   
    37   21   22 ar   
    38   21   40 1    
    39   22   23 ar   
    40   22   25 1    
    41   23   24 ar   
    42   24   41 1    
    43   25   42 1    
    44   25   43 1    
    45   25   44 1    
    46   26   27 1    
    47   26   28 1    
    48   26   45 1    
    49   27   28 1    
    50   27   46 1    
    51   27   47 1    
    52   28   48 1    
    53   28   49 1    
@<TRIPOS>SUBSTRUCTURE
     1 UNK         1 GROUP             0       ****    0 ROOT    
