@<TRIPOS>MOLECULE
21
48   52    1
SMALL
USER_CHARGES


@<TRIPOS>ATOM
      1 C1         -6.3865   12.3338  -12.0432 C.ar      1 UNK         0.0000 
      2 C2         -6.4856   11.7841  -10.7704 C.ar      1 UNK         0.0000 
      3 C3         -7.7472   10.5643  -13.0426 C.ar      1 UNK         0.0000 
      4 C4         -7.0167   11.7500  -13.1460 C.ar      1 UNK         0.0000 
      5 C5         -7.8303   10.0081  -11.7598 C.ar      1 UNK         0.0000 
      6 C6         -7.2256   10.6149  -10.6156 C.ar      1 UNK         0.0000 
      7 C7         -7.6010    9.7518   -9.5145 C.ar      1 UNK         0.0000 
      8 N8         -8.2842    8.7423   -9.9828 N.2       1 UNK         0.0000 
      9 N9         -8.4323    8.8733  -11.2925 N.pl3     1 UNK         0.0000 
     10 C10        -7.3270    9.8938   -8.0225 C.3       1 UNK         0.0000 
     11 C11        -5.5587   13.5285  -12.2266 C.ar      1 UNK         0.0000 
     12 C12        -5.9618   10.4909   -7.7327 C.ar      1 UNK         0.0000 
     13 C13        -5.8582   11.7635   -7.1652 C.ar      1 UNK         0.0000 
     14 C14        -4.6045   12.3140   -6.9191 C.ar      1 UNK         0.0000 
     15 C15        -3.4477   11.5945   -7.2362 C.ar      1 UNK         0.0000 
     16 C16        -3.5614   10.3184   -7.7958 C.ar      1 UNK         0.0000 
     17 C17        -4.8112    9.7685   -8.0438 C.ar      1 UNK         0.0000 
     18 C18        -2.1002   12.1716   -6.9783 C.ar      1 UNK         0.0000 
     19 C19        -1.7494   13.4275   -6.4902 C.ar      1 UNK         0.0000 
     20 N20        -0.4141   13.4605   -6.4332 N.pl3     1 UNK         0.0000 
     21 N21         0.1744   12.3664   -6.8143 N.2       1 UNK         0.0000 
     22 C22        -0.8092   11.5630   -7.1796 C.ar      1 UNK         0.0000 
     23 C23         0.4176   14.5730   -6.0003 C.3       1 UNK         0.0000 
     24 C24        -4.4279   13.9049  -11.5130 C.ar      1 UNK         0.0000 
     25 N25        -4.0090   15.0294  -12.0677 N.pl3     1 UNK         0.0000 
     26 C26        -4.8449   15.3445  -13.0534 C.ar      1 UNK         0.0000 
     27 N27        -5.7816   14.4464  -13.2081 N.2       1 UNK         0.0000 
     28 C28        -2.9003   15.7800  -11.6435 C.3       1 UNK         0.0000 
     29 H29        -6.0033   12.2571   -9.9302 H         1 UNK         0.0000 
     30 H30        -8.2085   10.1086  -13.9036 H         1 UNK         0.0000 
     31 H31        -6.9107   12.2133  -14.1195 H         1 UNK         0.0000 
     32 H32        -8.9502    8.1807  -11.8157 H         1 UNK         0.0000 
     33 H33        -7.4150    8.9297   -7.5146 H         1 UNK         0.0000 
     34 H34        -8.0903   10.5352   -7.5767 H         1 UNK         0.0000 
     35 H35        -6.7489   12.3218   -6.9239 H         1 UNK         0.0000 
     36 H36        -4.5244   13.2981   -6.4811 H         1 UNK         0.0000 
     37 H37        -2.6700    9.7533   -8.0396 H         1 UNK         0.0000 
     38 H38        -4.8938    8.7844   -8.4823 H         1 UNK         0.0000 
     39 H39        -2.3367   14.2768   -6.1925 H         1 UNK         0.0000 
     40 H40        -0.6184   10.5668   -7.5609 H         1 UNK         0.0000 
     41 H41         1.0791   14.8637   -6.8199 H         1 UNK         0.0000 
     42 H42         1.0264   14.2592   -5.1502 H         1 UNK         0.0000 
     43 H43        -0.1971   15.4244   -5.7161 H         1 UNK         0.0000 
     44 H44        -3.8953   13.4661  -10.6706 H         1 UNK         0.0000 
     45 H45        -4.6948   16.2656  -13.6196 H         1 UNK         0.0000 
     46 H46        -3.2685   16.3921  -10.8459 H         1 UNK         0.0000 
     47 H47        -2.6068   16.4484  -12.4038 H         1 UNK         0.0000 
     48 H48        -2.0360   15.1571  -11.3689 H         1 UNK         0.0000 
@<TRIPOS>BOND
     1    1    2 ar   
     2    1    4 ar   
     3    1   11 1    
     4    2    6 ar   
     5    2   29 1    
     6    3    4 ar   
     7    3    5 ar   
     8    3   30 1    
     9    4   31 1    
    10    5    6 ar   
    11    5    9 ar   
    12    6    7 ar   
    13    7    8 ar   
    14    7   10 1    
    15    8    9 ar   
    16    9   32 1    
    17   10   12 1    
    18   10   33 1    
    19   10   34 1    
    20   11   24 ar   
    21   11   27 ar   
    22   12   13 ar   
    23   12   17 ar   
    24   13   14 ar   
    25   13   35 1    
    26   14   15 ar   
    27   14   36 1    
    28   15   16 ar   
    29   15   18 1    
    30   16   17 ar   
    31   16   37 1    
    32   17   38 1    
    33   18   19 ar   
    34   18   22 ar   
    35   19   20 ar   
    36   19   39 1    
    37   20   21 ar   
    38   20   23 1    
    39   21   22 ar   
    40   22   40 1    
    41   23   41 1    
    42   23   42 1    
    43   23   43 1    
    44   24   25 ar   
    45   24   44 1    
    46   25   26 ar   
    47   25   28 1    
    48   26   27 ar   
    49   26   45 1    
    50   28   46 1    
    51   28   47 1    
    52   28   48 1    
@<TRIPOS>SUBSTRUCTURE
     1 UNK         1 GROUP             0       ****    0 ROOT    
