27
                    3D
 Schrodinger Suite 2021-2.
 38 40  0  0  1  0            999 V2000
    4.1784  -49.4639    6.2203 O   0  0  0  0  0  0
    3.2494  -48.6379    6.3898 C   0  0  0  0  0  0
    3.5057  -47.4203    6.5722 O   0  5  0  0  0  0
    1.8694  -49.1879    6.3561 C   0  0  0  0  0  0
   -0.1751  -50.7678    6.4871 C   0  0  0  0  0  0
   -1.1857  -51.7207    6.5942 C   0  0  0  0  0  0
   -2.5063  -51.3885    6.3255 C   0  0  0  0  0  0
   -2.8117  -50.0805    5.9266 C   0  0  0  0  0  0
   -1.8118  -49.1247    5.7993 C   0  0  0  0  0  0
   -0.4872  -49.4555    6.0836 C   0  0  0  0  0  0
    0.6424  -48.5710    6.0066 C   0  0  0  0  0  0
    0.5308  -47.1337    5.6114 C   0  0  0  0  0  0
    0.4854  -46.1552    6.7424 C   0  0  0  0  0  0
   -0.7882  -46.0224    7.5175 C   0  0  0  0  0  0
   -1.8227  -45.6254    6.6920 O   0  0  0  0  0  0
   -3.1083  -45.4602    7.1320 C   0  0  0  0  0  0
   -3.5177  -46.0130    8.3257 C   0  0  0  0  0  0
   -4.8346  -45.8169    8.7381 C   0  0  0  0  0  0
   -5.7337  -45.0786    7.9666 C   0  0  0  0  0  0
   -5.3052  -44.5292    6.7686 C   0  0  0  0  0  0
   -3.9866  -44.7164    6.3549 C   0  0  0  0  0  0
   -0.9460  -52.7239    6.9137 H   0  0  0  0  0  0
   -3.2737  -52.1415    6.4073 H   0  0  0  0  0  0
   -3.8334  -49.8128    5.7080 H   0  0  0  0  0  0
   -2.0830  -48.1204    5.5174 H   0  0  0  0  0  0
   -0.3655  -47.0024    5.0015 H   0  0  0  0  0  0
    1.3594  -46.8607    4.9538 H   0  0  0  0  0  0
    0.8508  -45.1811    6.4079 H   0  0  0  0  0  0
    1.2348  -46.4588    7.4677 H   0  0  0  0  0  0
   -0.5987  -45.3405    8.3504 H   0  0  0  0  0  0
   -1.0001  -46.9973    7.9304 H   0  0  0  0  0  0
   -2.8320  -46.6238    8.8870 H   0  0  0  0  0  0
   -3.6836  -44.2792    5.4153 H   0  0  0  0  0  0
    1.5033  -50.7915    6.7395 N   0  0  0  0  0  0
    2.2196  -51.4150    7.0842 H   0  0  0  0  0  0
   -5.9853  -43.9582    6.1496 H   0  0  0  0  0  0
   -6.7428  -44.9134    8.2994 H   0  0  0  0  0  0
   -5.1956  -46.2499    9.6672 H   0  0  0  0  0  0
  1  2  2  0  0  0
  2  3  1  0  0  0
  2  4  1  0  0  0
  4 11  2  0  0  0
  4 34  1  0  0  0
  5  6  1  0  0  0
  5 10  2  0  0  0
  5 34  1  0  0  0
  6  7  2  0  0  0
  6 22  1  0  0  0
  7  8  1  0  0  0
  7 23  1  0  0  0
  8  9  2  0  0  0
  8 24  1  0  0  0
  9 10  1  0  0  0
  9 25  1  0  0  0
 10 11  1  0  0  0
 11 12  1  0  0  0
 12 26  1  0  0  0
 12 27  1  0  0  0
 12 13  1  0  0  0
 13 14  1  0  0  0
 13 28  1  0  0  0
 13 29  1  0  0  0
 14 15  1  0  0  0
 14 30  1  0  0  0
 14 31  1  0  0  0
 15 16  1  0  0  0
 16 17  1  0  0  0
 16 21  2  0  0  0
 17 18  2  0  0  0
 17 32  1  0  0  0
 18 19  1  0  0  0
 18 38  1  0  0  0
 19 20  2  0  0  0
 19 37  1  0  0  0
 20 21  1  0  0  0
 20 36  1  0  0  0
 21 33  1  0  0  0
 34 35  1  0  0  0
M  CHG  1   3  -1
M  END
> <s_m_entry_id>
272

> <s_m_entry_name>
MCL1_27.1

> <r_m_Molecular_weight>
294.33312

> <s_m_Source_Path>
C:\Users\yujiethinkpad\Desktop\05A\MCL1\original

> <s_m_Source_File>
MCL1_27.sdf

> <r_user_dG.exp>
-6.11639066902356

> <s_fepmapper_entryid>
32

> <i_fepmapper_bias>
0

> <i_fepmapper_affinity>
1

> <r_fepmapper_exp_dG>
-6.11639066902

> <i_fepmapper_unit>
1

> <i_m_Source_File_Index>
1

> <s_m_job_name>
align_ligands_2

> <s_i_glide_gridfile>
glide-grid_MCL1

> <i_i_glide_lignum>
11

> <i_i_glide_rotatable_bonds>
6

> <r_i_docking_score>
-7.51758649763033

> <r_i_glide_ligand_efficiency>
-0.341708477165015

> <r_i_glide_ligand_efficiency_sa>
-0.957480591648193

> <r_i_glide_ligand_efficiency_ln>
-1.83757235065092

> <r_i_glide_gscore>
-7.51758649763033

> <r_i_glide_lipo>
-4.37662731410973

> <r_i_glide_hbond>
-0.2

> <r_i_glide_metal>
0

> <r_i_glide_rewards>
-2.02896924033751

> <r_i_glide_evdw>
-27.2768669128418

> <r_i_glide_ecoul>
-2.55344080924988

> <r_i_glide_erotb>
0.844395278781436

> <r_i_glide_esite>
-0.00952575493495716

> <r_i_glide_emodel>
-33.6539697091839

> <r_i_glide_energy>
-29.8303077220917

> <r_i_glide_einternal>
8.01303577423096

> <i_i_glide_confnum>
65

> <i_i_glide_posenum>
195

> <r_i_glide_eff_state_penalty>
0

> <r_glide_shape_similarity>
0.852467656135559

> <i_phase_Input_Structure_Number>
37

> <i_phase_Structure_Number>
37

> <r_phase_Similarity_to_Reference>
0.864075858032863

> <i_phase_Reference_Structure>
1

> <s_phase_Alignment_Method>
snapped core

> <s_phase_Alignment_Reason>


> <s_phase_Core_SMARTS>
a1aaaaa1AAAAa(aa2)a(a23)aaaa3

> <s_f3d_frozen_atoms>
17 18 19 20 21 16 15 14 13 12 11 4 34 10 5 9 8 7 6 32 38 37 36 33 30 31 28 29 26 27 35 25 24 23 22

> <s_m_subgroup_title>
align_ligands_2

> <s_m_subgroupid>
align_ligands_2

> <b_m_subgroup_collapsed>
0

$$$$
