31
                    3D
 Schrodinger Suite 2021-2.
 41 43  0  0  1  0            999 V2000
    4.1784  -49.4639    6.2203 O   0  0  0  0  0  0
    3.2494  -48.6379    6.3898 C   0  0  0  0  0  0
    3.5057  -47.4203    6.5722 O   0  5  0  0  0  0
    1.8694  -49.1879    6.3561 C   0  0  0  0  0  0
   -0.1751  -50.7678    6.4871 C   0  0  0  0  0  0
   -1.1857  -51.7207    6.5942 C   0  0  0  0  0  0
   -2.5063  -51.3885    6.3255 C   0  0  0  0  0  0
   -2.8117  -50.0805    5.9266 C   0  0  0  0  0  0
   -1.8118  -49.1247    5.7993 C   0  0  0  0  0  0
   -0.4872  -49.4555    6.0836 C   0  0  0  0  0  0
    0.6424  -48.5710    6.0066 C   0  0  0  0  0  0
    0.5308  -47.1337    5.6114 C   0  0  0  0  0  0
    0.4854  -46.1552    6.7424 C   0  0  0  0  0  0
   -0.7882  -46.0224    7.5175 C   0  0  0  0  0  0
   -1.8227  -45.6254    6.6920 O   0  0  0  0  0  0
   -3.1083  -45.4602    7.1320 C   0  0  0  0  0  0
   -3.9866  -44.7164    6.3549 C   0  0  0  0  0  0
   -5.3052  -44.5292    6.7686 C   0  0  0  0  0  0
   -5.7337  -45.0786    7.9666 C   0  0  0  0  0  0
   -4.8346  -45.8169    8.7381 C   0  0  0  0  0  0
   -3.5177  -46.0130    8.3257 C   0  0  0  0  0  0
   -0.9452  -52.7426    6.8517 H   0  0  0  0  0  0
   -3.2781  -52.1464    6.4057 H   0  0  0  0  0  0
   -3.8405  -49.8084    5.7363 H   0  0  0  0  0  0
   -2.0781  -48.1134    5.5000 H   0  0  0  0  0  0
   -0.3433  -47.0006    4.9722 H   0  0  0  0  0  0
    1.3788  -46.8675    4.9737 H   0  0  0  0  0  0
    0.6747  -45.1691    6.2982 H   0  0  0  0  0  0
    1.2880  -46.3431    7.4574 H   0  0  0  0  0  0
   -0.6682  -45.3032    8.3461 H   0  0  0  0  0  0
   -1.1136  -46.9610    7.9495 H   0  0  0  0  0  0
   -3.6627  -44.2454    5.4391 H   0  0  0  0  0  0
   -2.8123  -46.5954    8.8918 H   0  0  0  0  0  0
    1.5033  -50.7915    6.7395 N   0  0  0  0  0  0
    2.2085  -51.4548    7.0541 H   0  0  0  0  0  0
   -5.1295  -46.2357    9.6947 H   0  0  0  0  0  0
   -6.7351  -44.9502    8.3292 H   0  0  0  0  0  0
   -7.4825  -43.7146    6.3316 F   0  0  0  0  0  0
   -6.2072  -43.7097    5.8828 C   0  0  0  0  0  0
   -6.1576  -44.3455    4.7411 F   0  0  0  0  0  0
   -5.7265  -42.4644    5.7253 F   0  0  0  0  0  0
  1  2  2  0  0  0
  2  3  1  0  0  0
  2  4  1  0  0  0
  4 11  2  0  0  0
  4 34  1  0  0  0
  5  6  1  0  0  0
  5 10  2  0  0  0
  5 34  1  0  0  0
  6  7  2  0  0  0
  6 22  1  0  0  0
  7  8  1  0  0  0
  7 23  1  0  0  0
  8  9  2  0  0  0
  8 24  1  0  0  0
  9 10  1  0  0  0
  9 25  1  0  0  0
 10 11  1  0  0  0
 11 12  1  0  0  0
 12 26  1  0  0  0
 12 27  1  0  0  0
 12 13  1  0  0  0
 13 14  1  0  0  0
 13 28  1  0  0  0
 13 29  1  0  0  0
 14 15  1  0  0  0
 14 30  1  0  0  0
 14 31  1  0  0  0
 15 16  1  0  0  0
 16 17  1  0  0  0
 16 21  2  0  0  0
 17 18  2  0  0  0
 17 32  1  0  0  0
 18 19  1  0  0  0
 18 39  1  0  0  0
 19 20  2  0  0  0
 19 37  1  0  0  0
 20 21  1  0  0  0
 20 36  1  0  0  0
 21 33  1  0  0  0
 34 35  1  0  0  0
 38 39  1  0  0  0
 39 40  1  0  0  0
 39 41  1  0  0  0
M  CHG  1   3  -1
M  END
> <s_m_entry_id>
262

> <s_m_entry_name>
MCL1_31.1

> <r_m_Molecular_weight>
362.3315

> <s_m_Source_Path>
C:\Users\yujiethinkpad\Desktop\05A\MCL1\original

> <s_m_Source_File>
MCL1_31.sdf

> <r_user_dG.exp>
-7.91951688961355

> <s_fepmapper_entryid>
7

> <i_fepmapper_bias>
0

> <i_fepmapper_affinity>
1

> <r_fepmapper_exp_dG>
-7.91951688961

> <i_fepmapper_unit>
1

> <i_m_Source_File_Index>
1

> <s_m_job_name>
align_ligands_2

> <s_i_glide_gridfile>
glide-grid_MCL1

> <i_i_glide_lignum>
15

> <i_i_glide_rotatable_bonds>
7

> <r_i_docking_score>
-8.24820490401195

> <r_i_glide_ligand_efficiency>
-0.317238650154306

> <r_i_glide_ligand_efficiency_sa>
-0.939818252808319

> <r_i_glide_ligand_efficiency_ln>
-1.93706385713943

> <r_i_glide_gscore>
-8.24820490401195

> <r_i_glide_lipo>
-4.46398981769096

> <r_i_glide_hbond>
-0.2

> <r_i_glide_metal>
0

> <r_i_glide_rewards>
-2.6648715709191

> <r_i_glide_evdw>
-24.6307258605957

> <r_i_glide_ecoul>
-2.69945287704468

> <r_i_glide_erotb>
0.731300272525245

> <r_i_glide_esite>
-0.0141895633406483

> <r_i_glide_emodel>
-36.4696356487964

> <r_i_glide_energy>
-27.3301787376404

> <r_i_glide_einternal>
5.17581462860107

> <i_i_glide_confnum>
268

> <i_i_glide_posenum>
90

> <r_i_glide_eff_state_penalty>
0

> <r_glide_shape_similarity>
0.917450606822968

> <i_phase_Input_Structure_Number>
27

> <i_phase_Structure_Number>
27

> <r_phase_Similarity_to_Reference>
0.887944653061827

> <i_phase_Reference_Structure>
1

> <s_phase_Alignment_Method>
snapped core

> <s_phase_Alignment_Reason>


> <s_phase_Core_SMARTS>
a1aaaaa1AAAAa(aa2)a(a23)aaaa3

> <s_f3d_frozen_atoms>
21 20 19 18 17 16 15 14 13 12 11 4 34 10 5 9 8 7 6 33 36 37 32 30 31 28 29 26 27 35 25 24 23 22

> <s_m_subgroup_title>
align_ligands_2

> <s_m_subgroupid>
align_ligands_2

> <b_m_subgroup_collapsed>
0

$$$$
