35
                    3D
 Schrodinger Suite 2021-2.
 41 43  0  0  1  0            999 V2000
    4.1784  -49.4639    6.2203 O   0  0  0  0  0  0
    3.2494  -48.6379    6.3898 C   0  0  0  0  0  0
    3.5057  -47.4203    6.5722 O   0  5  0  0  0  0
    1.8694  -49.1879    6.3561 C   0  0  0  0  0  0
   -0.1751  -50.7678    6.4871 C   0  0  0  0  0  0
   -1.1857  -51.7207    6.5942 C   0  0  0  0  0  0
   -2.5063  -51.3885    6.3255 C   0  0  0  0  0  0
   -2.8117  -50.0805    5.9266 C   0  0  0  0  0  0
   -1.8118  -49.1247    5.7993 C   0  0  0  0  0  0
   -0.4872  -49.4555    6.0836 C   0  0  0  0  0  0
    0.6424  -48.5710    6.0066 C   0  0  0  0  0  0
    0.5308  -47.1337    5.6114 C   0  0  0  0  0  0
    0.4854  -46.1552    6.7424 C   0  0  0  0  0  0
   -0.7882  -46.0224    7.5175 C   0  0  0  0  0  0
   -1.8227  -45.6254    6.6920 O   0  0  0  0  0  0
   -3.1083  -45.4602    7.1320 C   0  0  0  0  0  0
   -3.9866  -44.7164    6.3549 C   0  0  0  0  0  0
   -5.3052  -44.5292    6.7686 C   0  0  0  0  0  0
   -5.7337  -45.0786    7.9666 C   0  0  0  0  0  0
   -4.8346  -45.8169    8.7381 C   0  0  0  0  0  0
   -3.5177  -46.0130    8.3257 C   0  0  0  0  0  0
   -0.9477  -52.7291    6.9060 H   0  0  0  0  0  0
   -3.2865  -52.1309    6.4258 H   0  0  0  0  0  0
   -3.8296  -49.8021    5.6993 H   0  0  0  0  0  0
   -2.0862  -48.1199    5.5162 H   0  0  0  0  0  0
   -0.3571  -46.9907    4.9813 H   0  0  0  0  0  0
    1.3736  -46.8666    4.9614 H   0  0  0  0  0  0
    0.7224  -45.1717    6.3185 H   0  0  0  0  0  0
    1.2784  -46.3585    7.4519 H   0  0  0  0  0  0
   -0.6746  -45.3139    8.3330 H   0  0  0  0  0  0
   -1.1273  -46.9710    7.9073 H   0  0  0  0  0  0
   -3.6695  -44.3457    5.3901 H   0  0  0  0  0  0
   -2.8508  -46.6247    8.9253 H   0  0  0  0  0  0
    1.5033  -50.7915    6.7395 N   0  0  0  0  0  0
    2.2148  -51.4101    7.0949 H   0  0  0  0  0  0
   -5.1661  -46.2788    9.6582 H   0  0  0  0  0  0
   -7.3769  -44.8311    8.4817 Cl  0  0  0  0  0  0
   -6.2713  -43.7412    5.9372 C   0  0  0  0  0  0
   -5.7708  -43.3857    5.0366 H   0  0  0  0  0  0
   -6.6342  -42.8886    6.5112 H   0  0  0  0  0  0
   -7.1128  -44.3754    5.6582 H   0  0  0  0  0  0
  1  2  2  0  0  0
  2  3  1  0  0  0
  2  4  1  0  0  0
  4 11  2  0  0  0
  4 34  1  0  0  0
  5  6  1  0  0  0
  5 10  2  0  0  0
  5 34  1  0  0  0
  6  7  2  0  0  0
  6 22  1  0  0  0
  7  8  1  0  0  0
  7 23  1  0  0  0
  8  9  2  0  0  0
  8 24  1  0  0  0
  9 10  1  0  0  0
  9 25  1  0  0  0
 10 11  1  0  0  0
 11 12  1  0  0  0
 12 26  1  0  0  0
 12 27  1  0  0  0
 12 13  1  0  0  0
 13 14  1  0  0  0
 13 28  1  0  0  0
 13 29  1  0  0  0
 14 15  1  0  0  0
 14 30  1  0  0  0
 14 31  1  0  0  0
 15 16  1  0  0  0
 16 17  1  0  0  0
 16 21  2  0  0  0
 17 18  2  0  0  0
 17 32  1  0  0  0
 18 19  1  0  0  0
 18 38  1  0  0  0
 19 20  2  0  0  0
 19 37  1  0  0  0
 20 21  1  0  0  0
 20 36  1  0  0  0
 21 33  1  0  0  0
 34 35  1  0  0  0
 38 39  1  0  0  0
 38 40  1  0  0  0
 38 41  1  0  0  0
M  CHG  1   3  -1
M  END
> <s_m_entry_id>
267

> <s_m_entry_name>
MCL1_35.1

> <r_m_Molecular_weight>
342.80524

> <s_m_Source_Path>
C:\Users\yujiethinkpad\Desktop\05A\MCL1\original

> <s_m_Source_File>
MCL1_35.sdf

> <r_user_dG.exp>
-8.81264617449463

> <s_fepmapper_entryid>
6

> <i_fepmapper_bias>
0

> <i_fepmapper_affinity>
1

> <r_fepmapper_exp_dG>
-8.81264617449

> <i_fepmapper_unit>
1

> <i_m_Source_File_Index>
1

> <s_m_job_name>
align_ligands_2

> <s_i_glide_gridfile>
glide-grid_MCL1

> <i_i_glide_lignum>
19

> <i_i_glide_rotatable_bonds>
6

> <r_i_docking_score>
-7.81602230004235

> <r_i_glide_ligand_efficiency>
-0.325667595835098

> <r_i_glide_ligand_efficiency_sa>
-0.939387899317291

> <r_i_glide_ligand_efficiency_ln>
-1.87073279029328

> <r_i_glide_gscore>
-7.81602230004235

> <r_i_glide_lipo>
-4.72439931977394

> <r_i_glide_hbond>
-0.2

> <r_i_glide_metal>
0

> <r_i_glide_rewards>
-1.86208448729832

> <r_i_glide_evdw>
-28.1307544708252

> <r_i_glide_ecoul>
-2.81476855278015

> <r_i_glide_erotb>
0.807043462423793

> <r_i_glide_esite>
-0.00782894893560191

> <r_i_glide_emodel>
-41.5960895611545

> <r_i_glide_energy>
-30.9455230236053

> <r_i_glide_einternal>
3.92886352539063

> <i_i_glide_confnum>
260

> <i_i_glide_posenum>
13

> <r_i_glide_eff_state_penalty>
0

> <r_glide_shape_similarity>
0.911912143230438

> <i_phase_Input_Structure_Number>
32

> <i_phase_Structure_Number>
32

> <r_phase_Similarity_to_Reference>
0.930893198803296

> <i_phase_Reference_Structure>
1

> <s_phase_Alignment_Method>
snapped core

> <s_phase_Alignment_Reason>


> <s_phase_Core_SMARTS>
a1aaaaa1AAAAa(aa2)a(a23)aaaa3

> <s_f3d_frozen_atoms>
21 20 19 18 17 16 15 14 13 12 11 4 34 10 5 9 8 7 6 33 36 37 32 30 31 28 29 26 27 35 25 24 23 22

> <s_m_subgroup_title>
align_ligands_2

> <s_m_subgroupid>
align_ligands_2

> <b_m_subgroup_collapsed>
0

$$$$
