42
                    3D
 Schrodinger Suite 2021-2.
 44 47  0  0  1  0            999 V2000
    4.1784  -49.4639    6.2203 O   0  0  0  0  0  0
    3.2494  -48.6379    6.3898 C   0  0  0  0  0  0
    3.5057  -47.4203    6.5722 O   0  5  0  0  0  0
    1.8694  -49.1879    6.3561 C   0  0  0  0  0  0
   -0.1751  -50.7678    6.4871 C   0  0  0  0  0  0
   -1.1857  -51.7207    6.5942 C   0  0  0  0  0  0
   -2.5063  -51.3885    6.3255 C   0  0  0  0  0  0
   -2.8117  -50.0805    5.9266 C   0  0  0  0  0  0
   -1.8118  -49.1247    5.7993 C   0  0  0  0  0  0
   -0.4872  -49.4555    6.0836 C   0  0  0  0  0  0
    0.6424  -48.5710    6.0066 C   0  0  0  0  0  0
    0.5308  -47.1337    5.6114 C   0  0  0  0  0  0
    0.4854  -46.1552    6.7424 C   0  0  0  0  0  0
   -0.7882  -46.0224    7.5175 C   0  0  0  0  0  0
   -1.8227  -45.6254    6.6920 O   0  0  0  0  0  0
   -3.1083  -45.4602    7.1320 C   0  0  0  0  0  0
   -5.7337  -45.0786    7.9666 C   0  0  0  0  0  0
   -4.8346  -45.8169    8.7381 C   0  0  0  0  0  0
   -3.5177  -46.0130    8.3257 C   0  0  0  0  0  0
   -0.9422  -52.7274    6.8987 H   0  0  0  0  0  0
   -3.2771  -52.1438    6.4119 H   0  0  0  0  0  0
   -3.8358  -49.8025    5.7201 H   0  0  0  0  0  0
   -2.0718  -48.1221    5.4938 H   0  0  0  0  0  0
    1.3788  -46.8764    4.9696 H   0  0  0  0  0  0
   -0.3524  -46.9964    4.9929 H   0  0  0  0  0  0
    1.2675  -46.4268    7.4479 H   0  0  0  0  0  0
    0.7695  -45.1695    6.3746 H   0  0  0  0  0  0
   -1.0268  -46.9760    7.9441 H   0  0  0  0  0  0
   -0.6221  -45.3345    8.3466 H   0  0  0  0  0  0
   -2.8605  -46.5831    8.9591 H   0  0  0  0  0  0
   -5.3052  -44.5292    6.7686 C   0  0  0  0  0  0
   -3.9866  -44.7164    6.3549 C   0  0  0  0  0  0
   -3.5582  -44.1538    5.1139 C   0  0  0  0  0  0
   -4.5164  -43.5859    4.2345 C   0  0  0  0  0  0
   -5.8784  -43.5087    4.6096 C   0  0  0  0  0  0
   -6.2561  -43.9021    5.9268 C   0  0  0  0  0  0
   -2.5420  -44.2906    4.7750 H   0  0  0  0  0  0
   -4.2028  -43.2306    3.2596 H   0  0  0  0  0  0
   -6.6050  -43.1088    3.9220 H   0  0  0  0  0  0
   -7.2788  -43.7851    6.2562 H   0  0  0  0  0  0
   -5.1553  -46.2781    9.6530 H   0  0  0  0  0  0
   -6.7710  -45.0115    8.2609 H   0  0  0  0  0  0
    1.5033  -50.7915    6.7395 N   0  0  0  0  0  0
    2.2208  -51.4298    7.0693 H   0  0  0  0  0  0
  1  2  2  0  0  0
  2  3  1  0  0  0
  2  4  1  0  0  0
  4 11  2  0  0  0
  4 43  1  0  0  0
  5  6  1  0  0  0
  5 10  2  0  0  0
  5 43  1  0  0  0
  6  7  2  0  0  0
  6 20  1  0  0  0
  7  8  1  0  0  0
  7 21  1  0  0  0
  8  9  2  0  0  0
  8 22  1  0  0  0
  9 10  1  0  0  0
  9 23  1  0  0  0
 10 11  1  0  0  0
 11 12  1  0  0  0
 12 24  1  0  0  0
 12 25  1  0  0  0
 12 13  1  0  0  0
 13 14  1  0  0  0
 13 26  1  0  0  0
 13 27  1  0  0  0
 14 15  1  0  0  0
 14 28  1  0  0  0
 14 29  1  0  0  0
 15 16  1  0  0  0
 16 19  2  0  0  0
 16 32  1  0  0  0
 17 18  2  0  0  0
 17 31  1  0  0  0
 17 42  1  0  0  0
 18 19  1  0  0  0
 18 41  1  0  0  0
 19 30  1  0  0  0
 31 32  2  0  0  0
 31 36  1  0  0  0
 32 33  1  0  0  0
 33 34  2  0  0  0
 33 37  1  0  0  0
 34 35  1  0  0  0
 34 38  1  0  0  0
 35 36  2  0  0  0
 35 39  1  0  0  0
 36 40  1  0  0  0
 43 44  1  0  0  0
M  CHG  1   3  -1
M  END
> <s_m_entry_id>
242

> <s_m_entry_name>
MCL1_42.1

> <r_m_Molecular_weight>
344.39366

> <s_m_Source_Path>
C:\Users\yujiethinkpad\Desktop\05A\MCL1\original

> <s_m_Source_File>
MCL1_42.sdf

> <r_user_dG.exp>
-8.89674735927531

> <s_fepmapper_entryid>
40

> <i_fepmapper_bias>
0

> <i_fepmapper_affinity>
1

> <r_fepmapper_exp_dG>
-8.89674735928

> <i_fepmapper_unit>
1

> <i_m_Source_File_Index>
1

> <s_m_job_name>
align_ligands_2

> <s_i_glide_gridfile>
glide-grid_MCL1

> <i_i_glide_lignum>
26

> <i_i_glide_rotatable_bonds>
6

> <r_i_docking_score>
-9.00530107923607

> <r_i_glide_ligand_efficiency>
-0.346357733816772

> <r_i_glide_ligand_efficiency_sa>
-1.02608342358031

> <r_i_glide_ligand_efficiency_ln>
-2.11486540965564

> <r_i_glide_gscore>
-9.00530107923607

> <r_i_glide_lipo>
-5.51057598185481

> <r_i_glide_hbond>
-0.2

> <r_i_glide_metal>
0

> <r_i_glide_rewards>
-1.9610235

> <r_i_glide_evdw>
-30.8891353607178

> <r_i_glide_ecoul>
-2.80173802375793

> <r_i_glide_erotb>
0.640363311436548

> <r_i_glide_esite>
-0.00934743721822839

> <r_i_glide_emodel>
-47.5295613472363

> <r_i_glide_energy>
-33.6908733844757

> <r_i_glide_einternal>
3.82033109664917

> <i_i_glide_confnum>
72

> <i_i_glide_posenum>
60

> <r_i_glide_eff_state_penalty>
0

> <r_glide_shape_similarity>
0.89322954416275

> <i_phase_Input_Structure_Number>
7

> <i_phase_Structure_Number>
7

> <r_phase_Similarity_to_Reference>
0.855873802158636

> <i_phase_Reference_Structure>
1

> <s_phase_Alignment_Method>
snapped core

> <s_phase_Alignment_Reason>


> <s_phase_Core_SMARTS>
a1aaaaa1AAAAa(aa2)a(a23)aaaa3

> <s_f3d_frozen_atoms>
19 18 17 31 32 16 15 14 13 12 11 4 43 10 5 9 8 7 6 30 41 42 28 29 26 27 24 25 44 23 22 21 20

> <s_m_subgroup_title>
align_ligands_2

> <s_m_subgroupid>
align_ligands_2

> <b_m_subgroup_collapsed>
0

$$$$
