46
                    3D
 Schrodinger Suite 2021-2.
 45 48  0  0  1  0            999 V2000
    4.1784  -49.4639    6.2203 O   0  0  0  0  0  0
    3.2494  -48.6379    6.3898 C   0  0  0  0  0  0
    3.5057  -47.4203    6.5722 O   0  5  0  0  0  0
    1.8694  -49.1879    6.3561 C   0  0  0  0  0  0
   -0.1751  -50.7678    6.4871 C   0  0  0  0  0  0
   -1.1857  -51.7207    6.5942 C   0  0  0  0  0  0
   -2.5063  -51.3885    6.3255 C   0  0  0  0  0  0
   -2.8117  -50.0805    5.9266 C   0  0  0  0  0  0
   -1.8118  -49.1247    5.7993 C   0  0  0  0  0  0
   -0.4872  -49.4555    6.0836 C   0  0  0  0  0  0
    0.6424  -48.5710    6.0066 C   0  0  0  0  0  0
    0.5308  -47.1337    5.6114 C   0  0  0  0  0  0
    0.4854  -46.1552    6.7424 C   0  0  0  0  0  0
   -0.7882  -46.0224    7.5175 C   0  0  0  0  0  0
   -1.8227  -45.6254    6.6920 O   0  0  0  0  0  0
   -3.1083  -45.4602    7.1320 C   0  0  0  0  0  0
   -5.3052  -44.5292    6.7686 C   0  0  0  0  0  0
   -3.9866  -44.7164    6.3549 C   0  0  0  0  0  0
   -0.9486  -52.7240    6.9208 H   0  0  0  0  0  0
   -3.2833  -52.1371    6.4360 H   0  0  0  0  0  0
   -3.8316  -49.8009    5.7168 H   0  0  0  0  0  0
   -2.0737  -48.1203    5.4926 H   0  0  0  0  0  0
    1.3842  -46.8677    4.9832 H   0  0  0  0  0  0
   -0.3403  -46.9943    4.9761 H   0  0  0  0  0  0
    1.2812  -46.3535    7.4620 H   0  0  0  0  0  0
    0.6829  -45.1601    6.3424 H   0  0  0  0  0  0
   -1.1118  -46.9549    7.9708 H   0  0  0  0  0  0
   -0.6562  -45.3097    8.3195 H   0  0  0  0  0  0
   -3.6377  -44.3000    5.4186 H   0  0  0  0  0  0
   -3.5177  -46.0130    8.3257 C   0  0  0  0  0  0
   -6.0290  -43.9813    6.1752 H   0  0  0  0  0  0
   -2.8748  -46.5982    8.9677 H   0  0  0  0  0  0
    1.5033  -50.7915    6.7395 N   0  0  0  0  0  0
   -6.6858  -45.3540   10.1521 C   0  0  0  0  0  0
   -5.3989  -46.2360   10.0786 C   0  0  0  0  0  0
   -4.8346  -45.8169    8.7381 C   0  0  0  0  0  0
   -5.7337  -45.0786    7.9666 C   0  0  0  0  0  0
   -7.0867  -44.8992    8.6217 C   0  0  0  0  0  0
   -7.4841  -43.8887    8.5548 H   0  0  0  0  0  0
   -7.8112  -45.6003    8.2201 H   0  0  0  0  0  0
   -6.3785  -44.4459   10.6755 H   0  0  0  0  0  0
   -7.4823  -45.7736   10.7379 H   0  0  0  0  0  0
   -5.6374  -47.2975   10.0644 H   0  0  0  0  0  0
   -4.7082  -45.9951   10.8866 H   0  0  0  0  0  0
    2.2196  -51.4363    7.0779 H   0  0  0  0  0  0
  1  2  2  0  0  0
  2  3  1  0  0  0
  2  4  1  0  0  0
  4 11  2  0  0  0
  4 33  1  0  0  0
  5  6  1  0  0  0
  5 10  2  0  0  0
  5 33  1  0  0  0
  6  7  2  0  0  0
  6 19  1  0  0  0
  7  8  1  0  0  0
  7 20  1  0  0  0
  8  9  2  0  0  0
  8 21  1  0  0  0
  9 10  1  0  0  0
  9 22  1  0  0  0
 10 11  1  0  0  0
 11 12  1  0  0  0
 12 23  1  0  0  0
 12 24  1  0  0  0
 12 13  1  0  0  0
 13 14  1  0  0  0
 13 25  1  0  0  0
 13 26  1  0  0  0
 14 15  1  0  0  0
 14 27  1  0  0  0
 14 28  1  0  0  0
 15 16  1  0  0  0
 16 18  2  0  0  0
 16 30  1  0  0  0
 17 18  1  0  0  0
 17 31  1  0  0  0
 17 37  2  0  0  0
 18 29  1  0  0  0
 30 32  1  0  0  0
 30 36  2  0  0  0
 33 45  1  0  0  0
 34 35  1  0  0  0
 34 38  1  0  0  0
 34 41  1  0  0  0
 34 42  1  0  0  0
 35 36  1  0  0  0
 35 43  1  0  0  0
 35 44  1  0  0  0
 36 37  1  0  0  0
 37 38  1  0  0  0
 38 39  1  0  0  0
 38 40  1  0  0  0
M  CHG  1   3  -1
M  END
> <s_m_entry_id>
259

> <s_m_entry_name>
MCL1_46.1

> <r_m_Molecular_weight>
334.39845

> <s_m_Source_Path>
C:\Users\yujiethinkpad\Desktop\05A\MCL1\original

> <s_m_Source_File>
MCL1_46.sdf

> <r_user_dG.exp>
-7.60113429727595

> <s_fepmapper_entryid>
5

> <i_fepmapper_bias>
0

> <i_fepmapper_affinity>
1

> <r_fepmapper_exp_dG>
-7.60113429728

> <i_fepmapper_unit>
1

> <i_m_Source_File_Index>
1

> <s_m_job_name>
align_ligands_2

> <s_i_glide_gridfile>
glide-grid_MCL1

> <i_i_glide_lignum>
30

> <i_i_glide_rotatable_bonds>
6

> <r_i_docking_score>
-8.33452739957843

> <r_i_glide_ligand_efficiency>
-0.333381095983137

> <r_i_glide_ligand_efficiency_sa>
-0.974812237193606

> <r_i_glide_ligand_efficiency_ln>
-1.9755327593314

> <r_i_glide_gscore>
-8.33452739957843

> <r_i_glide_lipo>
-5.09514326593566

> <r_i_glide_hbond>
-0.2

> <r_i_glide_metal>
0

> <r_i_glide_rewards>
-1.8684211527409

> <r_i_glide_evdw>
-27.9519500732422

> <r_i_glide_ecoul>
-2.92429351806641

> <r_i_glide_erotb>
0.674678162084637

> <r_i_glide_esite>
-0.00939961161443468

> <r_i_glide_emodel>
-44.7164231400714

> <r_i_glide_energy>
-30.8762435913086

> <r_i_glide_einternal>
4.15051555633545

> <i_i_glide_confnum>
43

> <i_i_glide_posenum>
52

> <r_i_glide_eff_state_penalty>
0

> <r_glide_shape_similarity>
0.931589245796204

> <i_phase_Input_Structure_Number>
24

> <i_phase_Structure_Number>
24

> <r_phase_Similarity_to_Reference>
0.896194337619624

> <i_phase_Reference_Structure>
1

> <s_phase_Alignment_Method>
snapped core

> <s_phase_Alignment_Reason>


> <s_phase_Core_SMARTS>
a1aaaaa1AAAAa(aa2)a(a23)aaaa3

> <s_f3d_frozen_atoms>
30 36 37 17 18 16 15 14 13 12 11 4 33 10 5 9 8 7 6 32 31 29 27 28 25 26 23 24 45 22 21 20 19

> <s_m_subgroup_title>
align_ligands_2

> <s_m_subgroupid>
align_ligands_2

> <b_m_subgroup_collapsed>
0

$$$$
