52
                    3D
 Schrodinger Suite 2021-2.
 41 43  0  0  1  0            999 V2000
    4.1784  -49.4639    6.2203 O   0  0  0  0  0  0
    3.2494  -48.6379    6.3898 C   0  0  0  0  0  0
    3.5057  -47.4203    6.5722 O   0  5  0  0  0  0
    1.8694  -49.1879    6.3561 C   0  0  0  0  0  0
   -0.1751  -50.7678    6.4871 C   0  0  0  0  0  0
   -1.1857  -51.7207    6.5942 C   0  0  0  0  0  0
   -2.5063  -51.3885    6.3255 C   0  0  0  0  0  0
   -2.8117  -50.0805    5.9266 C   0  0  0  0  0  0
   -1.8118  -49.1247    5.7993 C   0  0  0  0  0  0
   -0.4872  -49.4555    6.0836 C   0  0  0  0  0  0
    0.6424  -48.5710    6.0066 C   0  0  0  0  0  0
    0.5308  -47.1337    5.6114 C   0  0  0  0  0  0
    0.4854  -46.1552    6.7424 C   0  0  0  0  0  0
   -0.7882  -46.0224    7.5175 C   0  0  0  0  0  0
   -1.8227  -45.6254    6.6920 O   0  0  0  0  0  0
   -3.1083  -45.4602    7.1320 C   0  0  0  0  0  0
   -3.5177  -46.0130    8.3257 C   0  0  0  0  0  0
   -4.8346  -45.8169    8.7381 C   0  0  0  0  0  0
   -5.3037  -46.4216   10.0240 C   0  0  0  0  0  0
   -5.7337  -45.0786    7.9666 C   0  0  0  0  0  0
   -7.3769  -44.8311    8.4817 Cl  0  0  0  0  0  0
   -5.3052  -44.5292    6.7686 C   0  0  0  0  0  0
   -3.9866  -44.7164    6.3549 C   0  0  0  0  0  0
   -0.9661  -52.7061    6.9754 H   0  0  0  0  0  0
   -3.7023  -52.5958    6.6072 Cl  0  0  0  0  0  0
   -3.8359  -49.7829    5.7516 H   0  0  0  0  0  0
   -2.0741  -48.1082    5.5425 H   0  0  0  0  0  0
   -0.3532  -46.9905    4.9892 H   0  0  0  0  0  0
    1.3725  -46.8582    4.9748 H   0  0  0  0  0  0
    0.7145  -45.1600    6.3647 H   0  0  0  0  0  0
    1.2594  -46.3770    7.4752 H   0  0  0  0  0  0
   -0.6543  -45.3470    8.3651 H   0  0  0  0  0  0
   -1.0848  -47.0039    7.8644 H   0  0  0  0  0  0
   -2.7840  -46.4554    8.9850 H   0  0  0  0  0  0
   -4.7051  -46.0338   10.8482 H   0  0  0  0  0  0
   -5.1972  -47.5053    9.9766 H   0  0  0  0  0  0
   -6.3512  -46.1667   10.1851 H   0  0  0  0  0  0
   -3.6735  -44.2496    5.4329 H   0  0  0  0  0  0
   -5.9743  -43.9146    6.1842 H   0  0  0  0  0  0
    1.5033  -50.7915    6.7395 N   0  0  0  0  0  0
    2.2124  -51.4322    7.0772 H   0  0  0  0  0  0
  1  2  2  0  0  0
  2  3  1  0  0  0
  2  4  1  0  0  0
  4 11  2  0  0  0
  4 40  1  0  0  0
  5  6  1  0  0  0
  5 10  2  0  0  0
  5 40  1  0  0  0
  6  7  2  0  0  0
  6 24  1  0  0  0
  7  8  1  0  0  0
  7 25  1  0  0  0
  8  9  2  0  0  0
  8 26  1  0  0  0
  9 10  1  0  0  0
  9 27  1  0  0  0
 10 11  1  0  0  0
 11 12  1  0  0  0
 12 28  1  0  0  0
 12 29  1  0  0  0
 12 13  1  0  0  0
 13 14  1  0  0  0
 13 30  1  0  0  0
 13 31  1  0  0  0
 14 15  1  0  0  0
 14 32  1  0  0  0
 14 33  1  0  0  0
 15 16  1  0  0  0
 16 17  1  0  0  0
 16 23  2  0  0  0
 17 18  2  0  0  0
 17 34  1  0  0  0
 18 19  1  0  0  0
 18 20  1  0  0  0
 19 35  1  0  0  0
 19 36  1  0  0  0
 19 37  1  0  0  0
 20 21  1  0  0  0
 20 22  2  0  0  0
 22 23  1  0  0  0
 22 39  1  0  0  0
 23 38  1  0  0  0
 40 41  1  0  0  0
M  CHG  1   3  -1
M  END
> <s_m_entry_id>
271

> <s_m_entry_name>
MCL1_52.1

> <r_m_Molecular_weight>
377.25027

> <s_m_Source_Path>
C:\Users\yujiethinkpad\Desktop\05A\MCL1\original

> <s_m_Source_File>
MCL1_52.sdf

> <r_user_dG.exp>
-9.22585200324184

> <s_fepmapper_entryid>
8

> <i_fepmapper_bias>
0

> <i_fepmapper_affinity>
1

> <r_fepmapper_exp_dG>
-9.22585200324

> <i_fepmapper_unit>
1

> <i_m_Source_File_Index>
1

> <s_m_job_name>
align_ligands_2

> <s_i_glide_gridfile>
glide-grid_MCL1

> <i_i_glide_lignum>
36

> <i_i_glide_rotatable_bonds>
6

> <r_i_docking_score>
-7.62018086932599

> <r_i_glide_ligand_efficiency>
-0.30480723477304

> <r_i_glide_ligand_efficiency_sa>
-0.891261760255695

> <r_i_glide_ligand_efficiency_ln>
-1.80621122442352

> <r_i_glide_gscore>
-7.62018086932599

> <r_i_glide_lipo>
-4.78775394147682

> <r_i_glide_hbond>
-0.2

> <r_i_glide_metal>
0

> <r_i_glide_rewards>
-1.56812488808202

> <r_i_glide_evdw>
-26.8709850311279

> <r_i_glide_ecoul>
-2.58367037773132

> <r_i_glide_erotb>
0.680424897087132

> <r_i_glide_esite>
-0.013627128638188

> <r_i_glide_emodel>
-41.3513985788232

> <r_i_glide_energy>
-29.4546554088593

> <r_i_glide_einternal>
4.46637201309204

> <i_i_glide_confnum>
292

> <i_i_glide_posenum>
374

> <r_i_glide_eff_state_penalty>
0

> <r_glide_shape_similarity>
0.937503218650818

> <i_phase_Input_Structure_Number>
36

> <i_phase_Structure_Number>
36

> <r_phase_Similarity_to_Reference>
0.924109901207887

> <i_phase_Reference_Structure>
1

> <s_phase_Alignment_Method>
snapped core

> <s_phase_Alignment_Reason>


> <s_phase_Core_SMARTS>
a1aaaaa1AAAAa(aa2)a(a23)aaaa3

> <s_f3d_frozen_atoms>
17 18 20 22 23 16 15 14 13 12 11 4 40 10 5 9 8 7 6 34 21 39 38 32 33 30 31 28 29 41 27 26 25 24

> <s_m_subgroup_title>
align_ligands_2

> <s_m_subgroupid>
align_ligands_2

> <b_m_subgroup_collapsed>
0

$$$$
