65
                    3D
 Schrodinger Suite 2021-2.
 43 45  0  0  1  0            999 V2000
    4.1784  -49.4639    6.2203 O   0  0  0  0  0  0
    3.2494  -48.6379    6.3898 C   0  0  0  0  0  0
    3.5057  -47.4203    6.5722 O   0  5  0  0  0  0
    1.8694  -49.1879    6.3561 C   0  0  0  0  0  0
    1.5033  -50.7915    6.7395 S   0  0  0  0  0  0
   -0.1751  -50.7678    6.4871 C   0  0  0  0  0  0
   -1.1857  -51.7207    6.5942 C   0  0  0  0  0  0
   -2.5063  -51.3885    6.3255 C   0  0  0  0  0  0
   -2.8117  -50.0805    5.9266 C   0  0  0  0  0  0
   -1.8118  -49.1247    5.7993 C   0  0  0  0  0  0
   -0.4872  -49.4555    6.0836 C   0  0  0  0  0  0
    0.6424  -48.5710    6.0066 C   0  0  0  0  0  0
    0.5308  -47.1337    5.6114 C   0  0  0  0  0  0
    0.4854  -46.1552    6.7424 C   0  0  0  0  0  0
   -0.7882  -46.0224    7.5175 C   0  0  0  0  0  0
   -1.8227  -45.6254    6.6920 O   0  0  0  0  0  0
   -3.1083  -45.4602    7.1320 C   0  0  0  0  0  0
   -3.5177  -46.0130    8.3257 C   0  0  0  0  0  0
   -4.8346  -45.8169    8.7381 C   0  0  0  0  0  0
   -5.3037  -46.4216   10.0240 C   0  0  0  0  0  0
   -5.7337  -45.0786    7.9666 C   0  0  0  0  0  0
   -7.3769  -44.8311    8.4817 Cl  0  0  0  0  0  0
   -5.3052  -44.5292    6.7686 C   0  0  0  0  0  0
   -6.2713  -43.7412    5.9372 C   0  0  0  0  0  0
   -3.9866  -44.7164    6.3549 C   0  0  0  0  0  0
   -0.8204  -53.3350    7.1100 Cl  0  0  0  0  0  0
   -3.2819  -52.1337    6.4303 H   0  0  0  0  0  0
   -3.8320  -49.8199    5.7085 H   0  0  0  0  0  0
   -2.0818  -48.1415    5.4568 H   0  0  0  0  0  0
   -0.3363  -46.9835    4.9684 H   0  0  0  0  0  0
    1.3867  -46.8666    4.9815 H   0  0  0  0  0  0
    0.6776  -45.1789    6.3252 H   0  0  0  0  0  0
    1.2718  -46.3327    7.4678 H   0  0  0  0  0  0
   -0.6546  -45.3108    8.3233 H   0  0  0  0  0  0
   -1.0880  -46.9687    7.9681 H   0  0  0  0  0  0
   -2.8038  -46.5691    8.8987 H   0  0  0  0  0  0
   -6.3512  -46.1667   10.1851 H   0  0  0  0  0  0
   -4.7051  -46.0338   10.8482 H   0  0  0  0  0  0
   -5.1972  -47.5053    9.9766 H   0  0  0  0  0  0
   -5.7708  -43.3857    5.0366 H   0  0  0  0  0  0
   -7.1128  -44.3754    5.6582 H   0  0  0  0  0  0
   -6.6342  -42.8886    6.5112 H   0  0  0  0  0  0
   -3.6509  -44.2290    5.4476 H   0  0  0  0  0  0
  1  2  2  0  0  0
  2  3  1  0  0  0
  2  4  1  0  0  0
  4  5  1  0  0  0
  4 12  2  0  0  0
  5  6  1  0  0  0
  6  7  1  0  0  0
  6 11  2  0  0  0
  7  8  2  0  0  0
  7 26  1  0  0  0
  8  9  1  0  0  0
  8 27  1  0  0  0
  9 10  2  0  0  0
  9 28  1  0  0  0
 10 11  1  0  0  0
 10 29  1  0  0  0
 11 12  1  0  0  0
 12 13  1  0  0  0
 13 30  1  0  0  0
 13 31  1  0  0  0
 13 14  1  0  0  0
 14 15  1  0  0  0
 14 32  1  0  0  0
 14 33  1  0  0  0
 15 16  1  0  0  0
 15 34  1  0  0  0
 15 35  1  0  0  0
 16 17  1  0  0  0
 17 18  1  0  0  0
 17 25  2  0  0  0
 18 19  2  0  0  0
 18 36  1  0  0  0
 19 20  1  0  0  0
 19 21  1  0  0  0
 20 37  1  0  0  0
 20 38  1  0  0  0
 20 39  1  0  0  0
 21 22  1  0  0  0
 21 23  2  0  0  0
 23 24  1  0  0  0
 23 25  1  0  0  0
 24 40  1  0  0  0
 24 41  1  0  0  0
 24 42  1  0  0  0
 25 43  1  0  0  0
M  CHG  1   3  -1
M  END
> <s_m_entry_id>
264

> <s_m_entry_name>
MCL1_65.1

> <r_m_Molecular_weight>
408.32669

> <s_m_Source_Path>
C:\Users\yujiethinkpad\Desktop\05A\MCL1\original

> <s_m_Source_File>
MCL1_65.sdf

> <r_user_dG.exp>
-8.40733622276992

> <s_fepmapper_entryid>
29

> <i_fepmapper_bias>
0

> <i_fepmapper_affinity>
1

> <r_fepmapper_exp_dG>
-8.40733622277

> <i_fepmapper_unit>
1

> <i_m_Source_File_Index>
1

> <s_m_job_name>
align_ligands_2

> <s_i_glide_gridfile>
glide-grid_MCL1

> <i_i_glide_lignum>
5

> <i_i_glide_rotatable_bonds>
6

> <r_i_docking_score>
-8.1692547272313

> <r_i_glide_ligand_efficiency>
-0.314202104893512

> <r_i_glide_ligand_efficiency_sa>
-0.930822499421445

> <r_i_glide_ligand_efficiency_ln>
-1.91852266717916

> <r_i_glide_gscore>
-8.1692547272313

> <r_i_glide_lipo>
-5.20362899892793

> <r_i_glide_hbond>
-0.2

> <r_i_glide_metal>
0

> <r_i_glide_rewards>
-1.37999245186262

> <r_i_glide_evdw>
-30.3734931945801

> <r_i_glide_ecoul>
-2.87298560142517

> <r_i_glide_erotb>
0.590202387595814

> <r_i_glide_esite>
-0.0262131640937867

> <r_i_glide_emodel>
-49.9011966140068

> <r_i_glide_energy>
-33.2464787960052

> <r_i_glide_einternal>
4.89407968521118

> <i_i_glide_confnum>
247

> <i_i_glide_posenum>
3

> <r_i_glide_eff_state_penalty>
0

> <r_glide_shape_similarity>
0.943173944950104

> <i_phase_Input_Structure_Number>
29

> <i_phase_Structure_Number>
29

> <r_phase_Similarity_to_Reference>
0.980070477903592

> <i_phase_Reference_Structure>
1

> <s_phase_Alignment_Method>
snapped core

> <s_phase_Alignment_Reason>


> <s_phase_Core_SMARTS>
a1aaaaa1AAAAa(aa2)a(a23)aaaa3

> <s_f3d_frozen_atoms>
18 19 21 23 25 17 16 15 14 13 12 4 5 11 6 10 9 8 7 36 22 43 34 35 32 33 30 31 29 28 27 26

> <s_m_subgroup_title>
align_ligands_2

> <s_m_subgroupid>
align_ligands_2

> <b_m_subgroup_collapsed>
0

$$$$
