66
                    3D
 Schrodinger Suite 2021-2.
 43 46  0  0  1  0            999 V2000
    4.1784  -49.4639    6.2203 O   0  0  0  0  0  0
    3.2494  -48.6379    6.3898 C   0  0  0  0  0  0
    3.5057  -47.4203    6.5722 O   0  5  0  0  0  0
    1.8694  -49.1879    6.3561 C   0  0  0  0  0  0
    1.5033  -50.7915    6.7395 S   0  0  0  0  0  0
   -0.1751  -50.7678    6.4871 C   0  0  0  0  0  0
   -1.1857  -51.7207    6.5942 C   0  0  0  0  0  0
   -2.5063  -51.3885    6.3255 C   0  0  0  0  0  0
   -2.8117  -50.0805    5.9266 C   0  0  0  0  0  0
   -1.8118  -49.1247    5.7993 C   0  0  0  0  0  0
   -0.4872  -49.4555    6.0836 C   0  0  0  0  0  0
    0.6424  -48.5710    6.0066 C   0  0  0  0  0  0
    0.5308  -47.1337    5.6114 C   0  0  0  0  0  0
    0.4854  -46.1552    6.7424 C   0  0  0  0  0  0
   -0.7882  -46.0224    7.5175 C   0  0  0  0  0  0
   -1.8227  -45.6254    6.6920 O   0  0  0  0  0  0
   -3.1083  -45.4602    7.1320 C   0  0  0  0  0  0
   -5.7337  -45.0786    7.9666 C   0  0  0  0  0  0
   -4.8346  -45.8169    8.7381 C   0  0  0  0  0  0
   -3.5177  -46.0130    8.3257 C   0  0  0  0  0  0
   -0.8204  -53.3350    7.1100 Cl  0  0  0  0  0  0
   -3.2825  -52.1334    6.4264 H   0  0  0  0  0  0
   -3.8332  -49.8052    5.7043 H   0  0  0  0  0  0
   -2.0868  -48.1255    5.4942 H   0  0  0  0  0  0
    1.3687  -46.8668    4.9662 H   0  0  0  0  0  0
   -0.3507  -46.9931    4.9866 H   0  0  0  0  0  0
    1.2393  -46.4739    7.4629 H   0  0  0  0  0  0
    0.8211  -45.1698    6.4123 H   0  0  0  0  0  0
   -0.9792  -47.0042    7.9337 H   0  0  0  0  0  0
   -0.6060  -45.3338    8.3440 H   0  0  0  0  0  0
   -2.8567  -46.5820    8.9562 H   0  0  0  0  0  0
   -5.3052  -44.5292    6.7686 C   0  0  0  0  0  0
   -3.9866  -44.7164    6.3549 C   0  0  0  0  0  0
   -3.6033  -44.1056    5.1134 C   0  0  0  0  0  0
   -4.5763  -43.4859    4.2841 C   0  0  0  0  0  0
   -5.9297  -43.3875    4.6984 C   0  0  0  0  0  0
   -6.2763  -43.8845    5.9650 C   0  0  0  0  0  0
   -2.5930  -44.2085    4.7478 H   0  0  0  0  0  0
   -4.2824  -43.0959    3.3214 H   0  0  0  0  0  0
   -6.6916  -42.9232    4.0737 H   0  0  0  0  0  0
   -7.2988  -43.8233    6.3033 H   0  0  0  0  0  0
   -5.1518  -46.2670    9.6623 H   0  0  0  0  0  0
   -6.7685  -45.0110    8.2711 H   0  0  0  0  0  0
  1  2  2  0  0  0
  2  3  1  0  0  0
  2  4  1  0  0  0
  4  5  1  0  0  0
  4 12  2  0  0  0
  5  6  1  0  0  0
  6  7  1  0  0  0
  6 11  2  0  0  0
  7  8  2  0  0  0
  7 21  1  0  0  0
  8  9  1  0  0  0
  8 22  1  0  0  0
  9 10  2  0  0  0
  9 23  1  0  0  0
 10 11  1  0  0  0
 10 24  1  0  0  0
 11 12  1  0  0  0
 12 13  1  0  0  0
 13 25  1  0  0  0
 13 26  1  0  0  0
 13 14  1  0  0  0
 14 15  1  0  0  0
 14 27  1  0  0  0
 14 28  1  0  0  0
 15 16  1  0  0  0
 15 29  1  0  0  0
 15 30  1  0  0  0
 16 17  1  0  0  0
 17 20  2  0  0  0
 17 33  1  0  0  0
 18 19  2  0  0  0
 18 32  1  0  0  0
 18 43  1  0  0  0
 19 20  1  0  0  0
 19 42  1  0  0  0
 20 31  1  0  0  0
 32 33  2  0  0  0
 32 37  1  0  0  0
 33 34  1  0  0  0
 34 35  2  0  0  0
 34 38  1  0  0  0
 35 36  1  0  0  0
 35 39  1  0  0  0
 36 37  2  0  0  0
 36 40  1  0  0  0
 37 41  1  0  0  0
M  CHG  1   3  -1
M  END
> <s_m_entry_id>
239

> <s_m_entry_name>
MCL1_66.1

> <r_m_Molecular_weight>
395.88802

> <s_m_Source_Path>
C:\Users\yujiethinkpad\Desktop\05A\MCL1\original

> <s_m_Source_File>
MCL1_66.sdf

> <r_user_dG.exp>
-8.43167143836328

> <s_fepmapper_entryid>
15

> <i_fepmapper_bias>
0

> <i_fepmapper_affinity>
1

> <r_fepmapper_exp_dG>
-8.43167143836

> <i_fepmapper_unit>
1

> <i_m_Source_File_Index>
1

> <s_m_job_name>
align_ligands_2

> <s_i_glide_gridfile>
glide-grid_MCL1

> <i_i_glide_lignum>
6

> <i_i_glide_rotatable_bonds>
6

> <r_i_docking_score>
-9.08204132782534

> <r_i_glide_ligand_efficiency>
-0.336371901030568

> <r_i_glide_ligand_efficiency_sa>
-1.00911570198308

> <r_i_glide_ligand_efficiency_ln>
-2.11414949196448

> <r_i_glide_gscore>
-9.08204132782534

> <r_i_glide_lipo>
-5.65768987647627

> <r_i_glide_hbond>
-0.2

> <r_i_glide_metal>
0

> <r_i_glide_rewards>
-1.60991359090909

> <r_i_glide_evdw>
-33.8737754821777

> <r_i_glide_ecoul>
-2.63109135627747

> <r_i_glide_erotb>
0.499214537276342

> <r_i_glide_esite>
-0.0252999201658124

> <r_i_glide_emodel>
-46.7929024532843

> <r_i_glide_energy>
-36.5048668384552

> <r_i_glide_einternal>
5.22086906433105

> <i_i_glide_confnum>
21

> <i_i_glide_posenum>
241

> <r_i_glide_eff_state_penalty>
0

> <r_glide_shape_similarity>
0.885668158531189

> <i_phase_Input_Structure_Number>
4

> <i_phase_Structure_Number>
4

> <r_phase_Similarity_to_Reference>
0.857384357231351

> <i_phase_Reference_Structure>
1

> <s_phase_Alignment_Method>
snapped core

> <s_phase_Alignment_Reason>


> <s_phase_Core_SMARTS>
a1aaaaa1AAAAa(aa2)a(a23)aaaa3

> <s_f3d_frozen_atoms>
20 19 18 32 33 17 16 15 14 13 12 4 5 11 6 10 9 8 7 31 42 43 29 30 27 28 25 26 24 23 22 21

> <s_m_subgroup_title>
align_ligands_2

> <s_m_subgroupid>
align_ligands_2

> <b_m_subgroup_collapsed>
0

$$$$
