CAT-13j
                    3D
 Schrodinger Suite 2021-2.
 45 48  0  0  1  0            999 V2000
   13.6197   -1.5575    2.4604 C   0  0  0  0  0  0
   13.6119   -2.0602    1.0897 N   0  0  0  0  0  0
   12.5243   -2.2465    0.3503 C   0  0  0  0  0  0
   11.1581   -1.9781    0.7896 N   0  0  0  0  0  0
   12.8627   -2.7140   -0.8506 N   0  3  0  0  0  0
   14.3092   -2.8791   -0.9915 C   0  0  1  0  0  0
   14.6870   -4.3080   -1.2474 C   0  0  0  0  0  0
   16.0231   -4.6554   -1.4083 C   0  0  0  0  0  0
   16.3732   -5.9793   -1.6454 C   0  0  0  0  0  0
   15.3873   -6.9559   -1.7215 C   0  0  0  0  0  0
   14.0512   -6.6086   -1.5606 C   0  0  0  0  0  0
   12.9871   -7.6626   -1.6427 C   0  0  0  0  0  0
   11.8060   -7.5299   -0.9188 C   0  0  0  0  0  0
   10.8196   -8.5104   -0.9972 C   0  0  0  0  0  0
   11.0056   -9.6322   -1.8001 C   0  0  0  0  0  0
   12.1856   -9.7656   -2.5239 C   0  0  0  0  0  0
   12.4292  -11.1513   -3.5232 Cl  0  0  0  0  0  0
   13.1709   -8.7852   -2.4450 C   0  0  0  0  0  0
   13.7011   -5.2846   -1.3235 C   0  0  0  0  0  0
   14.8664   -2.0199   -2.0876 C   0  0  0  0  0  0
   15.3077   -0.7255   -1.8185 C   0  0  0  0  0  0
   15.8220    0.0551   -2.8536 C   0  0  0  0  0  0
   15.8811   -0.4838   -4.1370 C   0  0  0  0  0  0
   15.4216   -1.7856   -4.3317 C   0  0  0  0  0  0
   14.9183   -2.5567   -3.3327 N   0  0  0  0  0  0
   14.8089   -2.4210    0.3625 C   0  0  0  0  0  0
   15.9619   -2.3559    0.7860 O   0  0  0  0  0  0
   14.6466   -1.5051    2.8223 H   0  0  0  0  0  0
   13.1746   -0.5629    2.4852 H   0  0  0  0  0  0
   13.0440   -2.2292    3.0971 H   0  0  0  0  0  0
   10.3648   -2.1517    0.1480 H   0  0  0  0  0  0
   12.2003   -2.9322   -1.5862 H   0  0  0  0  0  0
   16.7907   -3.8951   -1.3490 H   0  0  0  0  0  0
   17.4134   -6.2498   -1.7707 H   0  0  0  0  0  0
   15.6598   -7.9867   -1.9061 H   0  0  0  0  0  0
   11.6531   -6.6610   -0.2921 H   0  0  0  0  0  0
    9.9041   -8.4007   -0.4317 H   0  0  0  0  0  0
   10.2412  -10.3937   -1.8619 H   0  0  0  0  0  0
   14.0843   -8.8982   -3.0114 H   0  0  0  0  0  0
   12.6609   -5.0142   -1.1982 H   0  0  0  0  0  0
   15.2510   -0.3305   -0.8134 H   0  0  0  0  0  0
   16.1691    1.0617   -2.6633 H   0  0  0  0  0  0
   16.2738    0.0927   -4.9635 H   0  0  0  0  0  0
   15.4557   -2.2298   -5.3194 H   0  0  0  0  0  0
   10.9829   -1.6144    1.7427 H   0  0  0  0  0  0
  1  2  1  0  0  0
  1 28  1  0  0  0
  1 29  1  0  0  0
  1 30  1  0  0  0
  2  3  1  0  0  0
  2 26  1  0  0  0
  3  4  1  0  0  0
  3  5  2  0  0  0
  4 31  1  0  0  0
  4 45  1  0  0  0
  5  6  1  0  0  0
  5 32  1  0  0  0
  6  7  1  0  0  0
  6 20  1  0  0  0
  6 26  1  0  0  0
  7  8  2  0  0  0
  7 19  1  0  0  0
  8  9  1  0  0  0
  8 33  1  0  0  0
  9 10  2  0  0  0
  9 34  1  0  0  0
 10 11  1  0  0  0
 10 35  1  0  0  0
 11 12  1  0  0  0
 11 19  2  0  0  0
 12 13  2  0  0  0
 12 18  1  0  0  0
 13 14  1  0  0  0
 13 36  1  0  0  0
 14 15  2  0  0  0
 14 37  1  0  0  0
 15 16  1  0  0  0
 15 38  1  0  0  0
 16 17  1  0  0  0
 16 18  2  0  0  0
 18 39  1  0  0  0
 19 40  1  0  0  0
 20 21  2  0  0  0
 20 25  1  0  0  0
 21 22  1  0  0  0
 21 41  1  0  0  0
 22 23  2  0  0  0
 22 42  1  0  0  0
 23 24  1  0  0  0
 23 43  1  0  0  0
 24 25  2  0  0  0
 24 44  1  0  0  0
 26 27  2  0  0  0
M  CHG  1   5   1
M  END
> <s_m_entry_id>
1122

> <s_m_entry_name>
Bace_CAT-13j.1

> <s_m_Source_Path>
C:\Users\yujiethinkpad\Desktop\05A\BACE

> <s_m_Source_File>
Bace_CAT-13j.sdf

> <i_m_Source_File_Index>
1

> <s_m_job_name>
align_ligands_4

> <r_user_dG.exp>
-8.733

> <r_m_Molecular_weight>
377.85681

> <i_phase_Input_Structure_Number>
28

> <i_phase_Structure_Number>
28

> <i_phase_Reference_Structure>
36

> <s_phase_Core_SMARTS>
a1aaaaa1A2(A(=A)AA=[A]2)a3aa(aaa3)-a4aaaaa4

> <r_phase_Similarity_to_Reference>
0.819128052674327

> <s_phase_Alignment_Method>
flexible least-squares core

> <s_phase_Alignment_Reason>
stereochemistry change

> <s_m_subgroup_title>
align_ligands_4

> <s_m_subgroupid>
align_ligands_4

> <b_m_subgroup_collapsed>
0

$$$$
