CAT-17i
                    3D
 Schrodinger Suite 2021-2.
 45 48  0  0  1  0            999 V2000
    9.4840   -8.2682   -0.1099 C   0  0  0  0  0  0
   10.7720   -8.4861   -0.8472 C   0  0  0  0  0  0
   10.9690   -9.6544   -1.5814 C   0  0  0  0  0  0
   12.1173   -9.8939   -2.2635 N   0  0  0  0  0  0
   13.0907   -8.9475   -2.2123 C   0  0  0  0  0  0
   12.9640   -7.7562   -1.4993 C   0  0  0  0  0  0
   14.0772   -6.7509   -1.4831 C   0  0  0  0  0  0
   15.3961   -7.1727   -1.6024 C   0  0  0  0  0  0
   16.4276   -6.2413   -1.5874 C   0  0  0  0  0  0
   16.1401   -4.8882   -1.4530 C   0  0  0  0  0  0
   14.8212   -4.4664   -1.3337 C   0  0  0  0  0  0
   14.5110   -3.0060   -1.1886 C   0  0  1  0  0  0
   15.6189   -2.2049   -1.8056 C   0  0  0  0  0  0
   15.5294   -1.8424   -3.2707 C   0  0  0  0  0  0
   15.3456   -0.7755   -2.2154 C   0  0  0  0  0  0
   13.2081   -2.6656   -1.7597 N   0  3  0  0  0  0
   12.3697   -2.1791   -0.8455 C   0  0  0  0  0  0
   10.9993   -1.7509   -1.1101 N   0  0  0  0  0  0
   12.9631   -2.1406    0.3422 N   0  0  0  0  0  0
   12.3437   -1.6646    1.5757 C   0  0  0  0  0  0
   14.3203   -2.6350    0.2670 C   0  0  0  0  0  0
   15.1140   -2.7197    1.2028 O   0  0  0  0  0  0
   13.7897   -5.3978   -1.3487 C   0  0  0  0  0  0
   11.7798   -7.5229   -0.8034 C   0  0  0  0  0  0
    9.5163   -7.3061    0.4014 H   0  0  0  0  0  0
    8.6547   -8.2761   -0.8172 H   0  0  0  0  0  0
    9.3451   -9.0640    0.6219 H   0  0  0  0  0  0
   10.1972  -10.4134   -1.6266 H   0  0  0  0  0  0
   14.0007   -9.1550   -2.7626 H   0  0  0  0  0  0
   15.6199   -8.2261   -1.7070 H   0  0  0  0  0  0
   17.4544   -6.5696   -1.6803 H   0  0  0  0  0  0
   16.9432   -4.1630   -1.4413 H   0  0  0  0  0  0
   16.5944   -2.4550   -1.3829 H   0  0  0  0  0  0
   16.4424   -1.8396   -3.8701 H   0  0  0  0  0  0
   14.6602   -2.1728   -3.8436 H   0  0  0  0  0  0
   14.3482   -0.3616   -2.0520 H   0  0  0  0  0  0
   16.1304   -0.0284   -2.0785 H   0  0  0  0  0  0
   12.9770   -2.7885   -2.7389 H   0  0  0  0  0  0
   10.6132   -1.8147   -2.0682 H   0  0  0  0  0  0
   13.0576   -1.7454    2.3954 H   0  0  0  0  0  0
   12.0460   -0.6231    1.4544 H   0  0  0  0  0  0
   11.4650   -2.2701    1.7981 H   0  0  0  0  0  0
   12.7629   -5.0695   -1.2558 H   0  0  0  0  0  0
   11.6443   -6.6103   -0.2387 H   0  0  0  0  0  0
   10.4139   -1.3836   -0.3396 H   0  0  0  0  0  0
  1  2  1  0  0  0
  1 25  1  0  0  0
  1 26  1  0  0  0
  1 27  1  0  0  0
  2  3  2  0  0  0
  2 24  1  0  0  0
  3  4  1  0  0  0
  3 28  1  0  0  0
  4  5  2  0  0  0
  5  6  1  0  0  0
  5 29  1  0  0  0
  6  7  1  0  0  0
  6 24  2  0  0  0
  7  8  2  0  0  0
  7 23  1  0  0  0
  8  9  1  0  0  0
  8 30  1  0  0  0
  9 10  2  0  0  0
  9 31  1  0  0  0
 10 11  1  0  0  0
 10 32  1  0  0  0
 11 12  1  0  0  0
 11 23  2  0  0  0
 12 13  1  0  0  0
 12 16  1  0  0  0
 12 21  1  0  0  0
 13 14  1  0  0  0
 13 15  1  0  0  0
 13 33  1  0  0  0
 14 15  1  0  0  0
 14 34  1  0  0  0
 14 35  1  0  0  0
 15 36  1  0  0  0
 15 37  1  0  0  0
 16 17  2  0  0  0
 16 38  1  0  0  0
 17 18  1  0  0  0
 17 19  1  0  0  0
 18 39  1  0  0  0
 18 45  1  0  0  0
 19 20  1  0  0  0
 19 21  1  0  0  0
 20 40  1  0  0  0
 20 41  1  0  0  0
 20 42  1  0  0  0
 21 22  2  0  0  0
 23 43  1  0  0  0
 24 44  1  0  0  0
M  CHG  1  16   1
M  END
> <s_m_entry_id>
1100

> <s_m_entry_name>
Bace_CAT-17i.1

> <s_m_Source_Path>
C:\Users\yujiethinkpad\Desktop\05A\BACE

> <s_m_Source_File>
Bace_CAT-17i.sdf

> <i_m_Source_File_Index>
1

> <s_m_job_name>
align_ligands_4

> <r_user_dG.exp>
-9.473

> <r_m_Molecular_weight>
321.40542

> <i_phase_Input_Structure_Number>
6

> <i_phase_Structure_Number>
6

> <i_phase_Reference_Structure>
36

> <s_phase_Core_SMARTS>
A=A1AA=[A]A1a2aa(aaa2)-a3aaaaa3

> <r_phase_Similarity_to_Reference>
0.76434428280928

> <s_phase_Alignment_Method>
flexible least-squares core

> <s_phase_Alignment_Reason>
stereochemistry change

> <s_m_subgroup_title>
align_ligands_4

> <s_m_subgroupid>
align_ligands_4

> <b_m_subgroup_collapsed>
0

$$$$
