CAT-17h
                    3D
 Schrodinger Suite 2021-2.
 42 45  0  0  1  0            999 V2000
   12.3425   -1.6656    1.5754 C   0  0  0  0  0  0
   12.9623   -2.1413    0.3421 N   0  0  0  0  0  0
   12.3693   -2.1798   -0.8458 C   0  0  0  0  0  0
   10.9988   -1.7518   -1.1107 N   0  0  0  0  0  0
   13.2079   -2.6661   -1.7599 N   0  3  0  0  0  0
   14.5107   -3.0063   -1.1885 C   0  0  1  0  0  0
   14.8213   -4.4666   -1.3336 C   0  0  0  0  0  0
   16.1403   -4.8881   -1.4527 C   0  0  0  0  0  0
   16.4281   -6.2411   -1.5871 C   0  0  0  0  0  0
   15.3968   -7.1727   -1.6025 C   0  0  0  0  0  0
   14.0778   -6.7512   -1.4834 C   0  0  0  0  0  0
   12.9647   -7.7567   -1.5000 C   0  0  0  0  0  0
   13.0909   -8.9486   -2.2130 C   0  0  0  0  0  0
   12.1179   -9.8954   -2.2647 N   0  0  0  0  0  0
   10.9695   -9.6518   -1.5805 C   0  0  0  0  0  0
   10.7704   -8.4829   -0.8451 C   0  0  0  0  0  0
    9.2902   -8.2257    0.0057 Cl  0  0  0  0  0  0
   11.7804   -7.5220   -0.8035 C   0  0  0  0  0  0
   13.7900   -5.3982   -1.3490 C   0  0  0  0  0  0
   15.6187   -2.2049   -1.8051 C   0  0  0  0  0  0
   15.5294   -1.8423   -3.2702 C   0  0  0  0  0  0
   15.3452   -0.7754   -2.2148 C   0  0  0  0  0  0
   14.3196   -2.6354    0.2671 C   0  0  0  0  0  0
   15.1131   -2.7200    1.2031 O   0  0  0  0  0  0
   13.0562   -1.7463    2.3953 H   0  0  0  0  0  0
   12.0447   -0.6241    1.4541 H   0  0  0  0  0  0
   11.4639   -2.2713    1.7976 H   0  0  0  0  0  0
   10.6129   -1.8157   -2.0689 H   0  0  0  0  0  0
   12.9771   -2.7889   -2.7392 H   0  0  0  0  0  0
   16.9432   -4.1628   -1.4407 H   0  0  0  0  0  0
   17.4550   -6.5693   -1.6798 H   0  0  0  0  0  0
   15.6208   -8.2261   -1.7071 H   0  0  0  0  0  0
   14.0009   -9.1565   -2.7634 H   0  0  0  0  0  0
   10.1962  -10.4079   -1.6235 H   0  0  0  0  0  0
   11.6477   -6.6090   -0.2400 H   0  0  0  0  0  0
   12.7631   -5.0700   -1.2563 H   0  0  0  0  0  0
   16.5941   -2.4548   -1.3822 H   0  0  0  0  0  0
   16.4426   -1.8392   -3.8693 H   0  0  0  0  0  0
   14.6605   -2.1728   -3.8433 H   0  0  0  0  0  0
   14.3477   -0.3618   -2.0517 H   0  0  0  0  0  0
   16.1298   -0.0282   -2.0777 H   0  0  0  0  0  0
   10.4131   -1.3847   -0.3403 H   0  0  0  0  0  0
  1  2  1  0  0  0
  1 25  1  0  0  0
  1 26  1  0  0  0
  1 27  1  0  0  0
  2  3  1  0  0  0
  2 23  1  0  0  0
  3  4  1  0  0  0
  3  5  2  0  0  0
  4 28  1  0  0  0
  4 42  1  0  0  0
  5  6  1  0  0  0
  5 29  1  0  0  0
  6  7  1  0  0  0
  6 20  1  0  0  0
  6 23  1  0  0  0
  7  8  2  0  0  0
  7 19  1  0  0  0
  8  9  1  0  0  0
  8 30  1  0  0  0
  9 10  2  0  0  0
  9 31  1  0  0  0
 10 11  1  0  0  0
 10 32  1  0  0  0
 11 12  1  0  0  0
 11 19  2  0  0  0
 12 13  2  0  0  0
 12 18  1  0  0  0
 13 14  1  0  0  0
 13 33  1  0  0  0
 14 15  2  0  0  0
 15 16  1  0  0  0
 15 34  1  0  0  0
 16 17  1  0  0  0
 16 18  2  0  0  0
 18 35  1  0  0  0
 19 36  1  0  0  0
 20 21  1  0  0  0
 20 22  1  0  0  0
 20 37  1  0  0  0
 21 22  1  0  0  0
 21 38  1  0  0  0
 21 39  1  0  0  0
 22 40  1  0  0  0
 22 41  1  0  0  0
 23 24  2  0  0  0
M  CHG  1   5   1
M  END
> <s_m_entry_id>
1099

> <s_m_entry_name>
Bace_CAT-17h.1

> <s_m_Source_Path>
C:\Users\yujiethinkpad\Desktop\05A\BACE

> <s_m_Source_File>
Bace_CAT-17h.sdf

> <i_m_Source_File_Index>
1

> <s_m_job_name>
align_ligands_4

> <r_user_dG.exp>
-10.333

> <r_m_Molecular_weight>
341.82336

> <i_phase_Input_Structure_Number>
5

> <i_phase_Structure_Number>
5

> <i_phase_Reference_Structure>
36

> <s_phase_Core_SMARTS>
A=A1AA=[A]A1a2aa(aaa2)-a3aaaaa3

> <r_phase_Similarity_to_Reference>
0.748796908636617

> <s_phase_Alignment_Method>
flexible least-squares core

> <s_phase_Alignment_Reason>
stereochemistry change

> <s_m_subgroup_title>
align_ligands_4

> <s_m_subgroupid>
align_ligands_4

> <b_m_subgroup_collapsed>
0

$$$$
