CAT-13k
                    3D
 Schrodinger Suite 2021-2.
 45 48  0  0  1  0            999 V2000
   13.5201   -1.5119    2.4178 C   0  0  0  0  0  0
   13.5459   -2.0306    1.0533 N   0  0  0  0  0  0
   12.4768   -2.2258    0.2895 C   0  0  0  0  0  0
   11.1002   -1.9526    0.6920 N   0  0  0  0  0  0
   12.8445   -2.7073   -0.8972 N   0  3  0  0  0  0
   14.2941   -2.8737   -1.0005 C   0  0  2  0  0  0
   14.8781   -2.0273   -2.0925 C   0  0  0  0  0  0
   15.3113   -0.7295   -1.8218 C   0  0  0  0  0  0
   15.8489    0.0302   -2.8585 C   0  0  0  0  0  0
   15.9308   -0.5423   -4.1271 C   0  0  0  0  0  0
   15.5127   -1.8048   -4.4046 N   0  0  0  0  0  0
   14.9911   -2.5340   -3.3860 C   0  0  0  0  0  0
   14.6780   -4.3054   -1.2302 C   0  0  0  0  0  0
   16.0176   -4.6543   -1.3542 C   0  0  0  0  0  0
   16.3733   -5.9809   -1.5671 C   0  0  0  0  0  0
   15.3895   -6.9585   -1.6560 C   0  0  0  0  0  0
   14.0499   -6.6096   -1.5320 C   0  0  0  0  0  0
   12.9881   -7.6647   -1.6280 C   0  0  0  0  0  0
   11.7895   -7.5239   -0.9349 C   0  0  0  0  0  0
   10.8053   -8.5055   -1.0260 C   0  0  0  0  0  0
   11.0109   -9.6365   -1.8109 C   0  0  0  0  0  0
   12.2084   -9.7781   -2.5039 C   0  0  0  0  0  0
   12.4764  -11.1753   -3.4806 Cl  0  0  0  0  0  0
   13.1915   -8.7966   -2.4123 C   0  0  0  0  0  0
   13.6942   -5.2830   -1.3191 C   0  0  0  0  0  0
   14.7604   -2.3997    0.3600 C   0  0  0  0  0  0
   15.9026   -2.3293    0.8109 O   0  0  0  0  0  0
   14.5377   -1.4550    2.8041 H   0  0  0  0  0  0
   13.0745   -0.5171    2.4199 H   0  0  0  0  0  0
   12.9288   -2.1762    3.0479 H   0  0  0  0  0  0
   10.3229   -2.1338    0.0331 H   0  0  0  0  0  0
   12.2005   -2.9342   -1.6462 H   0  0  0  0  0  0
   15.2313   -0.3198   -0.8240 H   0  0  0  0  0  0
   16.1949    1.0401   -2.6850 H   0  0  0  0  0  0
   16.3446    0.0257   -4.9518 H   0  0  0  0  0  0
   14.6597   -3.5400   -3.6146 H   0  0  0  0  0  0
   16.7836   -3.8932   -1.2850 H   0  0  0  0  0  0
   17.4163   -6.2525   -1.6636 H   0  0  0  0  0  0
   15.6665   -7.9913   -1.8217 H   0  0  0  0  0  0
   11.6214   -6.6477   -0.3224 H   0  0  0  0  0  0
    9.8762   -8.3893   -0.4845 H   0  0  0  0  0  0
   10.2483  -10.3988   -1.8825 H   0  0  0  0  0  0
   14.1185   -8.9160   -2.9547 H   0  0  0  0  0  0
   12.6512   -5.0114   -1.2226 H   0  0  0  0  0  0
   10.9017   -1.5778    1.6361 H   0  0  0  0  0  0
  1  2  1  0  0  0
  1 28  1  0  0  0
  1 29  1  0  0  0
  1 30  1  0  0  0
  2  3  1  0  0  0
  2 26  1  0  0  0
  3  4  1  0  0  0
  3  5  2  0  0  0
  4 31  1  0  0  0
  4 45  1  0  0  0
  5  6  1  0  0  0
  5 32  1  0  0  0
  6  7  1  0  0  0
  6 13  1  0  0  0
  6 26  1  0  0  0
  7  8  2  0  0  0
  7 12  1  0  0  0
  8  9  1  0  0  0
  8 33  1  0  0  0
  9 10  2  0  0  0
  9 34  1  0  0  0
 10 11  1  0  0  0
 10 35  1  0  0  0
 11 12  2  0  0  0
 12 36  1  0  0  0
 13 14  2  0  0  0
 13 25  1  0  0  0
 14 15  1  0  0  0
 14 37  1  0  0  0
 15 16  2  0  0  0
 15 38  1  0  0  0
 16 17  1  0  0  0
 16 39  1  0  0  0
 17 18  1  0  0  0
 17 25  2  0  0  0
 18 19  2  0  0  0
 18 24  1  0  0  0
 19 20  1  0  0  0
 19 40  1  0  0  0
 20 21  2  0  0  0
 20 41  1  0  0  0
 21 22  1  0  0  0
 21 42  1  0  0  0
 22 23  1  0  0  0
 22 24  2  0  0  0
 24 43  1  0  0  0
 25 44  1  0  0  0
 26 27  2  0  0  0
M  CHG  1   5   1
M  END
> <s_m_entry_id>
1123

> <s_m_entry_name>
Bace_CAT-13k.1

> <s_m_Source_Path>
C:\Users\yujiethinkpad\Desktop\05A\BACE

> <s_m_Source_File>
Bace_CAT-13k.sdf

> <i_m_Source_File_Index>
1

> <s_m_job_name>
align_ligands_4

> <r_user_dG.exp>
-9.703

> <r_m_Molecular_weight>
377.85681

> <i_phase_Input_Structure_Number>
29

> <i_phase_Structure_Number>
29

> <i_phase_Reference_Structure>
36

> <s_phase_Core_SMARTS>
a1aaaaa1A2(A(=A)AA=[A]2)a3aa(aaa3)-a4aaaaa4

> <r_phase_Similarity_to_Reference>
0.816511945294223

> <s_phase_Alignment_Method>
flexible least-squares core

> <s_phase_Alignment_Reason>
stereochemistry change

> <s_m_subgroup_title>
align_ligands_4

> <s_m_subgroupid>
align_ligands_4

> <b_m_subgroup_collapsed>
0

$$$$
