CAT-4m
                    3D
 Schrodinger Suite 2021-2.
 48 51  0  0  1  0            999 V2000
    9.5498   -8.4607   -0.2744 C   0  0  0  0  0  0
   10.8365   -8.5548   -1.0395 C   0  0  0  0  0  0
   11.0799   -9.6494   -1.8674 C   0  0  0  0  0  0
   12.2289   -9.7764   -2.5779 N   0  0  0  0  0  0
   13.1558   -8.7901   -2.4603 C   0  0  0  0  0  0
   12.9812   -7.6674   -1.6522 C   0  0  0  0  0  0
   14.0444   -6.6128   -1.5660 C   0  0  0  0  0  0
   15.3805   -6.9578   -1.7320 C   0  0  0  0  0  0
   16.3656   -5.9807   -1.6521 C   0  0  0  0  0  0
   16.0147   -4.6586   -1.4062 C   0  0  0  0  0  0
   14.6786   -4.3136   -1.2403 C   0  0  0  0  0  0
   14.2999   -2.8866   -0.9749 C   0  0  1  0  0  0
   14.8538   -2.0202   -2.0669 C   0  0  0  0  0  0
   15.5070   -2.5984   -3.1489 C   0  0  0  0  0  0
   16.0202   -1.7957   -4.1607 C   0  0  0  0  0  0
   15.8801   -0.4147   -4.0906 C   0  0  0  0  0  0
   15.2268    0.1635   -3.0087 C   0  0  0  0  0  0
   14.7137   -0.6393   -1.9969 C   0  0  0  0  0  0
   12.8535   -2.7239   -0.8298 N   0  3  0  0  0  0
   12.5173   -2.2640    0.3747 C   0  0  0  0  0  0
   11.1518   -1.9997    0.8186 N   0  0  0  0  0  0
   13.6064   -2.0811    1.1128 N   0  0  0  0  0  0
   13.6168   -1.5867    2.4865 C   0  0  0  0  0  0
   14.8022   -2.4363    0.3808 C   0  0  0  0  0  0
   15.9560   -2.3725    0.8021 O   0  0  0  0  0  0
   13.6935   -5.2907   -1.3201 C   0  0  0  0  0  0
   11.7969   -7.5495   -0.9281 C   0  0  0  0  0  0
    9.5424   -7.5422    0.3125 H   0  0  0  0  0  0
    8.7121   -8.4531   -0.9717 H   0  0  0  0  0  0
    9.4599   -9.3184    0.3922 H   0  0  0  0  0  0
   10.3452  -10.4397   -1.9661 H   0  0  0  0  0  0
   14.0671   -8.9075   -3.0344 H   0  0  0  0  0  0
   15.6537   -7.9872   -1.9234 H   0  0  0  0  0  0
   17.4058   -6.2493   -1.7813 H   0  0  0  0  0  0
   16.7817   -3.8978   -1.3440 H   0  0  0  0  0  0
   15.6161   -3.6736   -3.2034 H   0  0  0  0  0  0
   16.5288   -2.2458   -5.0030 H   0  0  0  0  0  0
   16.2797    0.2103   -4.8784 H   0  0  0  0  0  0
   15.1178    1.2387   -2.9542 H   0  0  0  0  0  0
   14.2051   -0.1891   -1.1545 H   0  0  0  0  0  0
   12.1898   -2.9383   -1.5653 H   0  0  0  0  0  0
   10.3573   -2.1702    0.1777 H   0  0  0  0  0  0
   14.6443   -1.5354    2.8465 H   0  0  0  0  0  0
   13.1706   -0.5927    2.5183 H   0  0  0  0  0  0
   13.0431   -2.2629    3.1204 H   0  0  0  0  0  0
   12.6533   -5.0221   -1.1909 H   0  0  0  0  0  0
   11.6250   -6.6929   -0.2904 H   0  0  0  0  0  0
   10.9784   -1.6420    1.7743 H   0  0  0  0  0  0
  1  2  1  0  0  0
  1 28  1  0  0  0
  1 29  1  0  0  0
  1 30  1  0  0  0
  2  3  2  0  0  0
  2 27  1  0  0  0
  3  4  1  0  0  0
  3 31  1  0  0  0
  4  5  2  0  0  0
  5  6  1  0  0  0
  5 32  1  0  0  0
  6  7  1  0  0  0
  6 27  2  0  0  0
  7  8  2  0  0  0
  7 26  1  0  0  0
  8  9  1  0  0  0
  8 33  1  0  0  0
  9 10  2  0  0  0
  9 34  1  0  0  0
 10 11  1  0  0  0
 10 35  1  0  0  0
 11 12  1  0  0  0
 11 26  2  0  0  0
 12 13  1  0  0  0
 12 19  1  0  0  0
 12 24  1  0  0  0
 13 14  2  0  0  0
 13 18  1  0  0  0
 14 15  1  0  0  0
 14 36  1  0  0  0
 15 16  2  0  0  0
 15 37  1  0  0  0
 16 17  1  0  0  0
 16 38  1  0  0  0
 17 18  2  0  0  0
 17 39  1  0  0  0
 18 40  1  0  0  0
 19 20  2  0  0  0
 19 41  1  0  0  0
 20 21  1  0  0  0
 20 22  1  0  0  0
 21 42  1  0  0  0
 21 48  1  0  0  0
 22 23  1  0  0  0
 22 24  1  0  0  0
 23 43  1  0  0  0
 23 44  1  0  0  0
 23 45  1  0  0  0
 24 25  2  0  0  0
 26 46  1  0  0  0
 27 47  1  0  0  0
M  CHG  1  19   1
M  END
> <s_m_entry_id>
1109

> <s_m_entry_name>
Bace_CAT-4m.1

> <s_m_Source_Path>
C:\Users\yujiethinkpad\Desktop\05A\BACE

> <s_m_Source_File>
Bace_CAT-4m.sdf

> <i_m_Source_File_Index>
1

> <s_m_job_name>
align_ligands_4

> <r_user_dG.exp>
-9.153

> <r_m_Molecular_weight>
357.43887

> <i_phase_Input_Structure_Number>
15

> <i_phase_Structure_Number>
15

> <i_phase_Reference_Structure>
36

> <s_phase_Core_SMARTS>
a1aaaaa1A2(A(=A)AA=[A]2)a3aa(aaa3)-a4aaaaa4

> <r_phase_Similarity_to_Reference>
0.807714898626856

> <s_phase_Alignment_Method>
flexible least-squares core

> <s_phase_Alignment_Reason>
stereochemistry change

> <s_m_subgroup_title>
align_ligands_4

> <s_m_subgroupid>
align_ligands_4

> <b_m_subgroup_collapsed>
0

$$$$
