CAT-17a
                    3D
 Schrodinger Suite 2021-2.
 43 46  0  0  1  0            999 V2000
   12.3233   -1.6810    1.5715 C   0  0  0  0  0  0
   12.9500   -2.1520    0.3398 N   0  0  0  0  0  0
   12.3618   -2.1905   -0.8506 C   0  0  0  0  0  0
   10.9908   -1.7672   -1.1202 N   0  0  0  0  0  0
   13.2060   -2.6719   -1.7621 N   0  3  0  0  0  0
   14.5078   -3.0082   -1.1861 C   0  0  1  0  0  0
   14.8245   -4.4671   -1.3327 C   0  0  0  0  0  0
   16.1455   -4.8833   -1.4472 C   0  0  0  0  0  0
   16.4389   -6.2350   -1.5830 C   0  0  0  0  0  0
   15.4113   -7.1705   -1.6043 C   0  0  0  0  0  0
   14.0902   -6.7542   -1.4898 C   0  0  0  0  0  0
   12.9811   -7.7638   -1.5128 C   0  0  0  0  0  0
   11.7974   -7.5188   -0.8138 C   0  0  0  0  0  0
   10.7660   -8.4582   -0.8355 C   0  0  0  0  0  0
    9.3038   -8.1541    0.0287 Cl  0  0  0  0  0  0
   10.9167   -9.6429   -1.5555 C   0  0  0  0  0  0
   12.0982   -9.8894   -2.2542 C   0  0  0  0  0  0
   12.2837  -11.3556   -3.1448 Cl  0  0  0  0  0  0
   13.1302   -8.9506   -2.2331 C   0  0  0  0  0  0
   13.7968   -5.4025   -1.3540 C   0  0  0  0  0  0
   15.6152   -2.2015   -1.7968 C   0  0  0  0  0  0
   15.5305   -1.8365   -3.2615 C   0  0  0  0  0  0
   15.3379   -0.7723   -2.2049 C   0  0  0  0  0  0
   14.3094   -2.6408    0.2695 C   0  0  0  0  0  0
   15.0994   -2.7242    1.2085 O   0  0  0  0  0  0
   13.0340   -1.7605    2.3941 H   0  0  0  0  0  0
   12.0220   -0.6404    1.4510 H   0  0  0  0  0  0
   11.4462   -2.2904    1.7889 H   0  0  0  0  0  0
   10.6091   -1.8307   -2.0801 H   0  0  0  0  0  0
   12.9797   -2.7937   -2.7426 H   0  0  0  0  0  0
   16.9456   -4.1551   -1.4306 H   0  0  0  0  0  0
   17.4675   -6.5591   -1.6721 H   0  0  0  0  0  0
   15.6397   -8.2229   -1.7100 H   0  0  0  0  0  0
   11.6781   -6.6013   -0.2550 H   0  0  0  0  0  0
   10.1187  -10.3693   -1.5721 H   0  0  0  0  0  0
   14.0449   -9.1440   -2.7755 H   0  0  0  0  0  0
   12.7683   -5.0785   -1.2648 H   0  0  0  0  0  0
   16.5898   -2.4485   -1.3704 H   0  0  0  0  0  0
   16.4460   -1.8289   -3.8569 H   0  0  0  0  0  0
   14.6651   -2.1692   -3.8387 H   0  0  0  0  0  0
   14.3382   -0.3627   -2.0450 H   0  0  0  0  0  0
   16.1191   -0.0224   -2.0632 H   0  0  0  0  0  0
   10.4007   -1.4038   -0.3515 H   0  0  0  0  0  0
  1  2  1  0  0  0
  1 26  1  0  0  0
  1 27  1  0  0  0
  1 28  1  0  0  0
  2  3  1  0  0  0
  2 24  1  0  0  0
  3  4  1  0  0  0
  3  5  2  0  0  0
  4 29  1  0  0  0
  4 43  1  0  0  0
  5  6  1  0  0  0
  5 30  1  0  0  0
  6  7  1  0  0  0
  6 21  1  0  0  0
  6 24  1  0  0  0
  7  8  2  0  0  0
  7 20  1  0  0  0
  8  9  1  0  0  0
  8 31  1  0  0  0
  9 10  2  0  0  0
  9 32  1  0  0  0
 10 11  1  0  0  0
 10 33  1  0  0  0
 11 12  1  0  0  0
 11 20  2  0  0  0
 12 13  2  0  0  0
 12 19  1  0  0  0
 13 14  1  0  0  0
 13 34  1  0  0  0
 14 15  1  0  0  0
 14 16  2  0  0  0
 16 17  1  0  0  0
 16 35  1  0  0  0
 17 18  1  0  0  0
 17 19  2  0  0  0
 19 36  1  0  0  0
 20 37  1  0  0  0
 21 22  1  0  0  0
 21 23  1  0  0  0
 21 38  1  0  0  0
 22 23  1  0  0  0
 22 39  1  0  0  0
 22 40  1  0  0  0
 23 41  1  0  0  0
 23 42  1  0  0  0
 24 25  2  0  0  0
M  CHG  1   5   1
M  END
> <s_m_entry_id>
1127

> <s_m_entry_name>
Bace_CAT-17a.1

> <s_m_Source_Path>
C:\Users\yujiethinkpad\Desktop\05A\BACE

> <s_m_Source_File>
Bace_CAT-17a.sdf

> <i_m_Source_File_Index>
1

> <s_m_job_name>
align_ligands_4

> <r_user_dG.exp>
-10.733

> <r_m_Molecular_weight>
375.28081

> <i_phase_Input_Structure_Number>
33

> <i_phase_Structure_Number>
33

> <i_phase_Reference_Structure>
36

> <s_phase_Core_SMARTS>
A=A1AA=[A]A1a2aa(aaa2)-a3aaaaa3

> <r_phase_Similarity_to_Reference>
0.772938161704104

> <s_phase_Alignment_Method>
flexible least-squares core

> <s_phase_Alignment_Reason>
stereochemistry change

> <s_m_subgroup_title>
align_ligands_4

> <s_m_subgroupid>
align_ligands_4

> <b_m_subgroup_collapsed>
0

$$$$
