CAT-17f
                    3D
 Schrodinger Suite 2021-2.
 43 46  0  0  1  0            999 V2000
   12.3385   -1.6701    1.5743 C   0  0  0  0  0  0
   12.9591   -2.1455    0.3412 N   0  0  0  0  0  0
   12.3668   -2.1838   -0.8471 C   0  0  0  0  0  0
   10.9964   -1.7560   -1.1127 N   0  0  0  0  0  0
   13.2061   -2.6698   -1.7606 N   0  3  0  0  0  0
   14.5086   -3.0100   -1.1885 C   0  0  1  0  0  0
   14.8194   -4.4703   -1.3337 C   0  0  0  0  0  0
   16.1386   -4.8916   -1.4520 C   0  0  0  0  0  0
   16.4265   -6.2446   -1.5866 C   0  0  0  0  0  0
   15.3954   -7.1762   -1.6028 C   0  0  0  0  0  0
   14.0762   -6.7549   -1.4845 C   0  0  0  0  0  0
   12.9633   -7.7605   -1.5020 C   0  0  0  0  0  0
   13.1038   -8.9474   -2.2192 C   0  0  0  0  0  0
   12.1241   -9.8851   -2.2634 N   0  0  0  0  0  0
   10.9788   -9.6337   -1.5772 C   0  0  0  0  0  0
   10.7679   -8.4699   -0.8390 C   0  0  0  0  0  0
    9.4792   -8.2526   -0.1027 C   0  0  0  0  0  0
    8.4962   -8.0570    0.4752 N   0  0  0  0  0  0
   11.7821   -7.5154   -0.8021 C   0  0  0  0  0  0
   13.7882   -5.4019   -1.3500 C   0  0  0  0  0  0
   15.6169   -2.2084   -1.8043 C   0  0  0  0  0  0
   15.5285   -1.8454   -3.2694 C   0  0  0  0  0  0
   15.3435   -0.7789   -2.2138 C   0  0  0  0  0  0
   14.3165   -2.6395    0.2671 C   0  0  0  0  0  0
   15.1095   -2.7242    1.2036 O   0  0  0  0  0  0
   13.0516   -1.7509    2.3946 H   0  0  0  0  0  0
   12.0406   -0.6287    1.4531 H   0  0  0  0  0  0
   11.4598   -2.2760    1.7957 H   0  0  0  0  0  0
   10.6112   -1.8196   -2.0712 H   0  0  0  0  0  0
   12.9760   -2.7924   -2.7401 H   0  0  0  0  0  0
   16.9414   -4.1662   -1.4394 H   0  0  0  0  0  0
   17.4535   -6.5726   -1.6787 H   0  0  0  0  0  0
   15.6196   -8.2296   -1.7076 H   0  0  0  0  0  0
   14.0144   -9.1545   -2.7688 H   0  0  0  0  0  0
   10.2071  -10.3929   -1.6233 H   0  0  0  0  0  0
   11.6555   -6.5999   -0.2402 H   0  0  0  0  0  0
   12.7612   -5.0739   -1.2579 H   0  0  0  0  0  0
   16.5920   -2.4583   -1.3808 H   0  0  0  0  0  0
   16.4420   -1.8422   -3.8679 H   0  0  0  0  0  0
   14.6600   -2.1759   -3.8431 H   0  0  0  0  0  0
   14.3458   -0.3653   -2.0512 H   0  0  0  0  0  0
   16.1279   -0.0316   -2.0760 H   0  0  0  0  0  0
   10.4103   -1.3891   -0.3426 H   0  0  0  0  0  0
  1  2  1  0  0  0
  1 26  1  0  0  0
  1 27  1  0  0  0
  1 28  1  0  0  0
  2  3  1  0  0  0
  2 24  1  0  0  0
  3  4  1  0  0  0
  3  5  2  0  0  0
  4 29  1  0  0  0
  4 43  1  0  0  0
  5  6  1  0  0  0
  5 30  1  0  0  0
  6  7  1  0  0  0
  6 21  1  0  0  0
  6 24  1  0  0  0
  7  8  2  0  0  0
  7 20  1  0  0  0
  8  9  1  0  0  0
  8 31  1  0  0  0
  9 10  2  0  0  0
  9 32  1  0  0  0
 10 11  1  0  0  0
 10 33  1  0  0  0
 11 12  1  0  0  0
 11 20  2  0  0  0
 12 13  2  0  0  0
 12 19  1  0  0  0
 13 14  1  0  0  0
 13 34  1  0  0  0
 14 15  2  0  0  0
 15 16  1  0  0  0
 15 35  1  0  0  0
 16 17  1  0  0  0
 16 19  2  0  0  0
 17 18  3  0  0  0
 19 36  1  0  0  0
 20 37  1  0  0  0
 21 22  1  0  0  0
 21 23  1  0  0  0
 21 38  1  0  0  0
 22 23  1  0  0  0
 22 39  1  0  0  0
 22 40  1  0  0  0
 23 41  1  0  0  0
 23 42  1  0  0  0
 24 25  2  0  0  0
M  CHG  1   5   1
M  END
> <s_m_entry_id>
1097

> <s_m_entry_name>
Bace_CAT-17f.1

> <s_m_Source_Path>
C:\Users\yujiethinkpad\Desktop\05A\BACE

> <s_m_Source_File>
Bace_CAT-17f.sdf

> <i_m_Source_File_Index>
1

> <s_m_job_name>
align_ligands_4

> <r_user_dG.exp>
-9.423

> <r_m_Molecular_weight>
332.38821

> <i_phase_Input_Structure_Number>
3

> <i_phase_Structure_Number>
3

> <i_phase_Reference_Structure>
36

> <s_phase_Core_SMARTS>
A=A1AA=[A]A1a2aa(aaa2)-a3aaaaa3

> <r_phase_Similarity_to_Reference>
0.761263223883274

> <s_phase_Alignment_Method>
flexible least-squares core

> <s_phase_Alignment_Reason>
stereochemistry change

> <s_m_subgroup_title>
align_ligands_4

> <s_m_subgroupid>
align_ligands_4

> <b_m_subgroup_collapsed>
0

$$$$
