CAT-17g
                    3D
 Schrodinger Suite 2021-2.
 42 45  0  0  1  0            999 V2000
   12.3384   -1.6692    1.5744 C   0  0  0  0  0  0
   12.9596   -2.1440    0.3414 N   0  0  0  0  0  0
   12.3676   -2.1825   -0.8470 C   0  0  0  0  0  0
   10.9970   -1.7554   -1.1129 N   0  0  0  0  0  0
   13.2074   -2.6678   -1.7605 N   0  3  0  0  0  0
   14.5100   -3.0073   -1.1882 C   0  0  1  0  0  0
   14.8217   -4.4673   -1.3335 C   0  0  0  0  0  0
   16.1412   -4.8878   -1.4516 C   0  0  0  0  0  0
   16.4300   -6.2406   -1.5863 C   0  0  0  0  0  0
   15.3994   -7.1729   -1.6029 C   0  0  0  0  0  0
   14.0800   -6.7524   -1.4848 C   0  0  0  0  0  0
   12.9677   -7.7587   -1.5028 C   0  0  0  0  0  0
   13.0994   -8.9512   -2.2187 C   0  0  0  0  0  0
   12.1178   -9.8925   -2.2637 N   0  0  0  0  0  0
   10.9676   -9.6441   -1.5767 C   0  0  0  0  0  0
   10.7627   -8.4757   -0.8390 C   0  0  0  0  0  0
    9.6040   -8.2713   -0.1720 F   0  0  0  0  0  0
   11.7804   -7.5212   -0.8040 C   0  0  0  0  0  0
   13.7911   -5.3996   -1.3502 C   0  0  0  0  0  0
   15.6179   -2.2049   -1.8035 C   0  0  0  0  0  0
   15.5297   -1.8418   -3.2685 C   0  0  0  0  0  0
   15.3437   -0.7755   -2.2129 C   0  0  0  0  0  0
   14.3173   -2.6371    0.2675 C   0  0  0  0  0  0
   15.1101   -2.7215    1.2041 O   0  0  0  0  0  0
   13.0514   -1.7497    2.3949 H   0  0  0  0  0  0
   12.0399   -0.6279    1.4533 H   0  0  0  0  0  0
   11.4600   -2.2756    1.7955 H   0  0  0  0  0  0
   10.6121   -1.8191   -2.0715 H   0  0  0  0  0  0
   12.9776   -2.7904   -2.7401 H   0  0  0  0  0  0
   16.9435   -4.1619   -1.4386 H   0  0  0  0  0  0
   17.4572   -6.5680   -1.6782 H   0  0  0  0  0  0
   15.6243   -8.2261   -1.7078 H   0  0  0  0  0  0
   14.0084   -9.1619   -2.7695 H   0  0  0  0  0  0
   10.1916  -10.3966   -1.6169 H   0  0  0  0  0  0
   11.6476   -6.6086   -0.2408 H   0  0  0  0  0  0
   12.7639   -5.0723   -1.2582 H   0  0  0  0  0  0
   16.5931   -2.4543   -1.3798 H   0  0  0  0  0  0
   16.4433   -1.8378   -3.8668 H   0  0  0  0  0  0
   14.6615   -2.1727   -3.8425 H   0  0  0  0  0  0
   14.3458   -0.3626   -2.0504 H   0  0  0  0  0  0
   16.1277   -0.0277   -2.0748 H   0  0  0  0  0  0
   10.4105   -1.3890   -0.3429 H   0  0  0  0  0  0
  1  2  1  0  0  0
  1 25  1  0  0  0
  1 26  1  0  0  0
  1 27  1  0  0  0
  2  3  1  0  0  0
  2 23  1  0  0  0
  3  4  1  0  0  0
  3  5  2  0  0  0
  4 28  1  0  0  0
  4 42  1  0  0  0
  5  6  1  0  0  0
  5 29  1  0  0  0
  6  7  1  0  0  0
  6 20  1  0  0  0
  6 23  1  0  0  0
  7  8  2  0  0  0
  7 19  1  0  0  0
  8  9  1  0  0  0
  8 30  1  0  0  0
  9 10  2  0  0  0
  9 31  1  0  0  0
 10 11  1  0  0  0
 10 32  1  0  0  0
 11 12  1  0  0  0
 11 19  2  0  0  0
 12 13  2  0  0  0
 12 18  1  0  0  0
 13 14  1  0  0  0
 13 33  1  0  0  0
 14 15  2  0  0  0
 15 16  1  0  0  0
 15 34  1  0  0  0
 16 18  2  0  0  0
 16 17  1  0  0  0
 18 35  1  0  0  0
 19 36  1  0  0  0
 20 21  1  0  0  0
 20 22  1  0  0  0
 20 37  1  0  0  0
 21 22  1  0  0  0
 21 38  1  0  0  0
 21 39  1  0  0  0
 22 40  1  0  0  0
 22 41  1  0  0  0
 23 24  2  0  0  0
M  CHG  1   5   1
M  END
> <s_m_entry_id>
1098

> <s_m_entry_name>
Bace_CAT-17g.1

> <s_m_Source_Path>
C:\Users\yujiethinkpad\Desktop\05A\BACE

> <s_m_Source_File>
Bace_CAT-17g.sdf

> <i_m_Source_File_Index>
1

> <s_m_job_name>
align_ligands_4

> <r_user_dG.exp>
-9.743

> <r_m_Molecular_weight>
325.36876

> <i_phase_Input_Structure_Number>
4

> <i_phase_Structure_Number>
4

> <i_phase_Reference_Structure>
36

> <s_phase_Core_SMARTS>
A=A1AA=[A]A1a2aa(aaa2)-a3aaaaa3

> <r_phase_Similarity_to_Reference>
0.748790632711274

> <s_phase_Alignment_Method>
flexible least-squares core

> <s_phase_Alignment_Reason>
stereochemistry change

> <s_m_subgroup_title>
align_ligands_4

> <s_m_subgroupid>
align_ligands_4

> <b_m_subgroup_collapsed>
0

$$$$
