CAT-13a
                    3D
 Schrodinger Suite 2021-2.
 39 41  0  0  1  0            999 V2000
   12.4093   -1.7438    1.7002 C   0  0  0  0  0  0
   12.9883   -2.1859    0.4350 N   0  0  0  0  0  0
   12.3527   -2.2051   -0.7312 C   0  0  0  0  0  0
   10.9692   -1.7863   -0.9366 N   0  0  0  0  0  0
   13.1622   -2.6624   -1.6855 N   0  3  0  0  0  0
   14.4884   -3.0008   -1.1695 C   0  0  2  0  0  0
   15.5650   -2.1744   -1.8081 C   0  0  0  0  0  0
   14.8080   -4.4542   -1.3579 C   0  0  0  0  0  0
   16.1259   -4.8588   -1.5340 C   0  0  0  0  0  0
   16.4220   -6.2054   -1.7086 C   0  0  0  0  0  0
   15.4002   -7.1475   -1.7071 C   0  0  0  0  0  0
   14.0823   -6.7430   -1.5309 C   0  0  0  0  0  0
   12.9795   -7.7597   -1.5293 C   0  0  0  0  0  0
   13.0981   -8.9297   -2.2734 C   0  0  0  0  0  0
   12.0723   -9.8721   -2.2698 C   0  0  0  0  0  0
   10.9188   -9.6529   -1.5221 C   0  0  0  0  0  0
   10.7994   -8.4839   -0.7782 C   0  0  0  0  0  0
    9.3747   -8.1994    0.1532 Cl  0  0  0  0  0  0
   11.8251   -7.5426   -0.7823 C   0  0  0  0  0  0
   13.7862   -5.3963   -1.3564 C   0  0  0  0  0  0
   14.3469   -2.6637    0.3000 C   0  0  0  0  0  0
   15.1748   -2.7600    1.2044 O   0  0  0  0  0  0
   13.1532   -1.8345    2.4917 H   0  0  0  0  0  0
   12.0968   -0.7032    1.6128 H   0  0  0  0  0  0
   11.5455   -2.3636    1.9407 H   0  0  0  0  0  0
   10.5493   -1.8335   -1.8814 H   0  0  0  0  0  0
   12.8970   -2.7664   -2.6583 H   0  0  0  0  0  0
   16.5334   -2.4581   -1.3961 H   0  0  0  0  0  0
   15.5639   -2.3454   -2.8846 H   0  0  0  0  0  0
   15.3800   -1.1191   -1.6077 H   0  0  0  0  0  0
   16.9214   -4.1253   -1.5353 H   0  0  0  0  0  0
   17.4481   -6.5204   -1.8457 H   0  0  0  0  0  0
   15.6308   -8.1959   -1.8430 H   0  0  0  0  0  0
   13.9915   -9.1082   -2.8575 H   0  0  0  0  0  0
   12.1714  -10.7792   -2.8505 H   0  0  0  0  0  0
   10.1221  -10.3831   -1.5184 H   0  0  0  0  0  0
   11.7226   -6.6375   -0.2009 H   0  0  0  0  0  0
   12.7601   -5.0814   -1.2192 H   0  0  0  0  0  0
   10.4085   -1.4423   -0.1375 H   0  0  0  0  0  0
  1  2  1  0  0  0
  1 23  1  0  0  0
  1 24  1  0  0  0
  1 25  1  0  0  0
  2  3  1  0  0  0
  2 21  1  0  0  0
  3  4  1  0  0  0
  3  5  2  0  0  0
  4 26  1  0  0  0
  4 39  1  0  0  0
  5  6  1  0  0  0
  5 27  1  0  0  0
  6  7  1  0  0  0
  6  8  1  0  0  0
  6 21  1  0  0  0
  7 28  1  0  0  0
  7 29  1  0  0  0
  7 30  1  0  0  0
  8  9  2  0  0  0
  8 20  1  0  0  0
  9 10  1  0  0  0
  9 31  1  0  0  0
 10 11  2  0  0  0
 10 32  1  0  0  0
 11 12  1  0  0  0
 11 33  1  0  0  0
 12 13  1  0  0  0
 12 20  2  0  0  0
 13 14  2  0  0  0
 13 19  1  0  0  0
 14 15  1  0  0  0
 14 34  1  0  0  0
 15 16  2  0  0  0
 15 35  1  0  0  0
 16 17  1  0  0  0
 16 36  1  0  0  0
 17 18  1  0  0  0
 17 19  2  0  0  0
 19 37  1  0  0  0
 20 38  1  0  0  0
 21 22  2  0  0  0
M  CHG  1   5   1
M  END
> <i_m_stars>
2

> <s_m_entry_id>
1113

> <s_m_entry_name>
Bace_CAT-13a.1

> <s_m_Source_Path>
C:\Users\yujiethinkpad\Desktop\05A\BACE

> <s_m_Source_File>
Bace_CAT-13a.sdf

> <i_m_Source_File_Index>
1

> <s_m_job_name>
align_ligands_4

> <r_user_dG.exp>
-8.843

> <r_m_Molecular_weight>
314.79754

> <i_phase_Input_Structure_Number>
19

> <i_phase_Structure_Number>
19

> <i_phase_Reference_Structure>
36

> <s_phase_Core_SMARTS>
A=A1AA=[A]A1a2aa(aaa2)-a3aaaaa3

> <r_phase_Similarity_to_Reference>
0.690427195595854

> <s_phase_Alignment_Method>
flexible least-squares core

> <s_phase_Alignment_Reason>
stereochemistry change

> <s_m_subgroup_title>
align_ligands_4

> <s_m_subgroupid>
align_ligands_4

> <b_m_subgroup_collapsed>
0

$$$$
