CAT-13i
                    3D
 Schrodinger Suite 2021-2.
 46 49  0  0  1  0            999 V2000
   12.3220   -1.6821    1.5715 C   0  0  0  0  0  0
   12.9492   -2.1525    0.3398 N   0  0  0  0  0  0
   12.3614   -2.1911   -0.8507 C   0  0  0  0  0  0
   10.9903   -1.7684   -1.1206 N   0  0  0  0  0  0
   13.2061   -2.6718   -1.7621 N   0  3  0  0  0  0
   14.5078   -3.0077   -1.1858 C   0  0  2  0  0  0
   15.6150   -2.2004   -1.7959 C   0  0  0  0  0  0
   15.0473   -1.2751   -2.8311 C   0  0  0  0  0  0
   15.1342    0.2170   -2.6030 C   0  0  0  0  0  0
   15.9947   -0.4376   -3.6600 C   0  0  0  0  0  0
   14.8252   -4.4664   -1.3326 C   0  0  0  0  0  0
   16.1465   -4.8820   -1.4468 C   0  0  0  0  0  0
   16.4406   -6.2336   -1.5828 C   0  0  0  0  0  0
   15.4134   -7.1695   -1.6046 C   0  0  0  0  0  0
   14.0921   -6.7538   -1.4904 C   0  0  0  0  0  0
   12.9834   -7.7640   -1.5140 C   0  0  0  0  0  0
   13.1245   -8.9491   -2.2296 C   0  0  0  0  0  0
   12.0931   -9.8852   -2.2496 C   0  0  0  0  0  0
   10.9116   -9.6445   -1.5541 C   0  0  0  0  0  0
   10.7697   -8.4604   -0.8386 C   0  0  0  0  0  0
    9.3102   -8.1492    0.0281 Cl  0  0  0  0  0  0
   11.8010   -7.5254   -0.8192 C   0  0  0  0  0  0
   13.7980   -5.4023   -1.3544 C   0  0  0  0  0  0
   14.3089   -2.6408    0.2698 C   0  0  0  0  0  0
   15.0987   -2.7240    1.2090 O   0  0  0  0  0  0
   13.0325   -1.7615    2.3943 H   0  0  0  0  0  0
   12.0202   -0.6416    1.4511 H   0  0  0  0  0  0
   11.4450   -2.2919    1.7885 H   0  0  0  0  0  0
   10.6088   -1.8318   -2.0806 H   0  0  0  0  0  0
   12.9801   -2.7935   -2.7426 H   0  0  0  0  0  0
   16.3374   -2.8694   -2.2636 H   0  0  0  0  0  0
   16.1098   -1.6170   -1.0194 H   0  0  0  0  0  0
   14.1530   -1.6849   -3.3055 H   0  0  0  0  0  0
   14.3005    0.8481   -2.9182 H   0  0  0  0  0  0
   15.6082    0.5842   -1.6902 H   0  0  0  0  0  0
   17.0689   -0.5269   -3.4845 H   0  0  0  0  0  0
   15.7612   -0.2631   -4.7125 H   0  0  0  0  0  0
   16.9463   -4.1534   -1.4299 H   0  0  0  0  0  0
   17.4693   -6.5571   -1.6718 H   0  0  0  0  0  0
   15.6423   -8.2217   -1.7105 H   0  0  0  0  0  0
   14.0397   -9.1443   -2.7731 H   0  0  0  0  0  0
   12.2097  -10.8042   -2.8080 H   0  0  0  0  0  0
   10.1106  -10.3699   -1.5687 H   0  0  0  0  0  0
   11.6809   -6.6083   -0.2602 H   0  0  0  0  0  0
   12.7693   -5.0787   -1.2655 H   0  0  0  0  0  0
   10.3997   -1.4054   -0.3520 H   0  0  0  0  0  0
  1  2  1  0  0  0
  1 26  1  0  0  0
  1 27  1  0  0  0
  1 28  1  0  0  0
  2  3  1  0  0  0
  2 24  1  0  0  0
  3  4  1  0  0  0
  3  5  2  0  0  0
  4 29  1  0  0  0
  4 46  1  0  0  0
  5  6  1  0  0  0
  5 30  1  0  0  0
  6  7  1  0  0  0
  6 11  1  0  0  0
  6 24  1  0  0  0
  7  8  1  0  0  0
  7 31  1  0  0  0
  7 32  1  0  0  0
  8  9  1  0  0  0
  8 10  1  0  0  0
  8 33  1  0  0  0
  9 10  1  0  0  0
  9 34  1  0  0  0
  9 35  1  0  0  0
 10 36  1  0  0  0
 10 37  1  0  0  0
 11 12  2  0  0  0
 11 23  1  0  0  0
 12 13  1  0  0  0
 12 38  1  0  0  0
 13 14  2  0  0  0
 13 39  1  0  0  0
 14 15  1  0  0  0
 14 40  1  0  0  0
 15 16  1  0  0  0
 15 23  2  0  0  0
 16 17  2  0  0  0
 16 22  1  0  0  0
 17 18  1  0  0  0
 17 41  1  0  0  0
 18 19  2  0  0  0
 18 42  1  0  0  0
 19 20  1  0  0  0
 19 43  1  0  0  0
 20 21  1  0  0  0
 20 22  2  0  0  0
 22 44  1  0  0  0
 23 45  1  0  0  0
 24 25  2  0  0  0
M  CHG  1   5   1
M  END
> <s_m_entry_id>
1121

> <s_m_entry_name>
Bace_CAT-13i.1

> <s_m_Source_Path>
C:\Users\yujiethinkpad\Desktop\05A\BACE

> <s_m_Source_File>
Bace_CAT-13i.sdf

> <i_m_Source_File_Index>
1

> <s_m_job_name>
align_ligands_4

> <r_user_dG.exp>
-9.273

> <r_m_Molecular_weight>
354.86287

> <i_phase_Input_Structure_Number>
27

> <i_phase_Structure_Number>
27

> <i_phase_Reference_Structure>
36

> <s_phase_Core_SMARTS>
A=A1AA=[A]A1a2aa(aaa2)-a3aaaaa3

> <r_phase_Similarity_to_Reference>
0.814260466496925

> <s_phase_Alignment_Method>
flexible least-squares core

> <s_phase_Alignment_Reason>
stereochemistry change

> <s_m_subgroup_title>
align_ligands_4

> <s_m_subgroupid>
align_ligands_4

> <b_m_subgroup_collapsed>
0

$$$$
