CAT-17c
                    3D
 Schrodinger Suite 2021-2.
 44 47  0  0  1  0            999 V2000
   12.3228   -1.6822    1.5715 C   0  0  0  0  0  0
   12.9492   -2.1533    0.3398 N   0  0  0  0  0  0
   12.3610   -2.1918   -0.8506 C   0  0  0  0  0  0
   10.9901   -1.7681   -1.1201 N   0  0  0  0  0  0
   13.2050   -2.6733   -1.7621 N   0  3  0  0  0  0
   14.5068   -3.0100   -1.1863 C   0  0  1  0  0  0
   14.8230   -4.4690   -1.3328 C   0  0  0  0  0  0
   16.1440   -4.8856   -1.4474 C   0  0  0  0  0  0
   16.4371   -6.2373   -1.5832 C   0  0  0  0  0  0
   15.4091   -7.1725   -1.6044 C   0  0  0  0  0  0
   14.0882   -6.7559   -1.4898 C   0  0  0  0  0  0
   12.9788   -7.7652   -1.5127 C   0  0  0  0  0  0
   13.1283   -8.9461   -2.2302 C   0  0  0  0  0  0
   12.1004   -9.8813   -2.2514 C   0  0  0  0  0  0
   10.9230   -9.6356   -1.5552 C   0  0  0  0  0  0
   10.7734   -8.4547   -0.8376 C   0  0  0  0  0  0
    9.5026   -8.1896   -0.0862 C   0  0  0  0  0  0
    8.5343   -7.9572    0.5030 N   0  0  0  0  0  0
   11.8013   -7.5196   -0.8164 C   0  0  0  0  0  0
   13.7951   -5.4041   -1.3540 C   0  0  0  0  0  0
   15.6143   -2.2036   -1.7970 C   0  0  0  0  0  0
   15.5296   -1.8385   -3.2617 C   0  0  0  0  0  0
   15.3374   -0.7743   -2.2051 C   0  0  0  0  0  0
   14.3085   -2.6426    0.2693 C   0  0  0  0  0  0
   15.0986   -2.7261    1.2083 O   0  0  0  0  0  0
   13.0335   -1.7619    2.3941 H   0  0  0  0  0  0
   12.0218   -0.6415    1.4510 H   0  0  0  0  0  0
   11.4455   -2.2913    1.7890 H   0  0  0  0  0  0
   10.6083   -1.8315   -2.0800 H   0  0  0  0  0  0
   12.9786   -2.7951   -2.7426 H   0  0  0  0  0  0
   16.9443   -4.1575   -1.4309 H   0  0  0  0  0  0
   17.4655   -6.5617   -1.6724 H   0  0  0  0  0  0
   15.6373   -8.2249   -1.7101 H   0  0  0  0  0  0
   14.0451   -9.1374   -2.7723 H   0  0  0  0  0  0
   12.2169  -10.8007   -2.8101 H   0  0  0  0  0  0
   10.1227  -10.3637   -1.5717 H   0  0  0  0  0  0
   11.6849   -6.6002   -0.2578 H   0  0  0  0  0  0
   12.7667   -5.0798   -1.2648 H   0  0  0  0  0  0
   16.5889   -2.4509   -1.3706 H   0  0  0  0  0  0
   16.4451   -1.8312   -3.8572 H   0  0  0  0  0  0
   14.6641   -2.1710   -3.8389 H   0  0  0  0  0  0
   14.3378   -0.3645   -2.0451 H   0  0  0  0  0  0
   16.1188   -0.0246   -2.0634 H   0  0  0  0  0  0
   10.4001   -1.4045   -0.3513 H   0  0  0  0  0  0
  1  2  1  0  0  0
  1 26  1  0  0  0
  1 27  1  0  0  0
  1 28  1  0  0  0
  2  3  1  0  0  0
  2 24  1  0  0  0
  3  4  1  0  0  0
  3  5  2  0  0  0
  4 29  1  0  0  0
  4 44  1  0  0  0
  5  6  1  0  0  0
  5 30  1  0  0  0
  6  7  1  0  0  0
  6 21  1  0  0  0
  6 24  1  0  0  0
  7  8  2  0  0  0
  7 20  1  0  0  0
  8  9  1  0  0  0
  8 31  1  0  0  0
  9 10  2  0  0  0
  9 32  1  0  0  0
 10 11  1  0  0  0
 10 33  1  0  0  0
 11 12  1  0  0  0
 11 20  2  0  0  0
 12 13  2  0  0  0
 12 19  1  0  0  0
 13 14  1  0  0  0
 13 34  1  0  0  0
 14 15  2  0  0  0
 14 35  1  0  0  0
 15 16  1  0  0  0
 15 36  1  0  0  0
 16 17  1  0  0  0
 16 19  2  0  0  0
 17 18  3  0  0  0
 19 37  1  0  0  0
 20 38  1  0  0  0
 21 22  1  0  0  0
 21 23  1  0  0  0
 21 39  1  0  0  0
 22 23  1  0  0  0
 22 40  1  0  0  0
 22 41  1  0  0  0
 23 42  1  0  0  0
 23 43  1  0  0  0
 24 25  2  0  0  0
M  CHG  1   5   1
M  END
> <s_m_entry_id>
1129

> <s_m_entry_name>
Bace_CAT-17c.1

> <s_m_Source_Path>
C:\Users\yujiethinkpad\Desktop\05A\BACE

> <s_m_Source_File>
Bace_CAT-17c.sdf

> <i_m_Source_File_Index>
1

> <s_m_job_name>
align_ligands_4

> <r_user_dG.exp>
-9.863

> <r_m_Molecular_weight>
331.40063

> <i_phase_Input_Structure_Number>
35

> <i_phase_Structure_Number>
35

> <i_phase_Reference_Structure>
36

> <s_phase_Core_SMARTS>
A=A1AA=[A]A1a2aa(aaa2)-a3aaaaa3

> <r_phase_Similarity_to_Reference>
0.791311546195634

> <s_phase_Alignment_Method>
flexible least-squares core

> <s_phase_Alignment_Reason>
stereochemistry change

> <s_m_subgroup_title>
align_ligands_4

> <s_m_subgroupid>
align_ligands_4

> <b_m_subgroup_collapsed>
0

$$$$
