CAT-4p
                    3D
 Schrodinger Suite 2021-2.
 45 48  0  0  1  0            999 V2000
   13.6159   -1.5874    2.4864 C   0  0  0  0  0  0
   13.6058   -2.0817    1.1126 N   0  0  0  0  0  0
   12.5169   -2.2647    0.3743 C   0  0  0  0  0  0
   11.1513   -2.0006    0.8181 N   0  0  0  0  0  0
   12.8534   -2.7244   -0.8302 N   0  3  0  0  0  0
   14.2998   -2.8869   -0.9750 C   0  0  2  0  0  0
   14.8537   -2.0204   -2.0669 C   0  0  0  0  0  0
   15.5072   -2.5984   -3.1488 C   0  0  0  0  0  0
   16.0205   -1.7955   -4.1605 C   0  0  0  0  0  0
   15.8802   -0.4145   -4.0903 C   0  0  0  0  0  0
   15.2266    0.1635   -3.0085 C   0  0  0  0  0  0
   14.7134   -0.6394   -1.9968 C   0  0  0  0  0  0
   14.6788   -4.3138   -1.2404 C   0  0  0  0  0  0
   16.0149   -4.6586   -1.4062 C   0  0  0  0  0  0
   16.3661   -5.9807   -1.6522 C   0  0  0  0  0  0
   15.3811   -6.9579   -1.7323 C   0  0  0  0  0  0
   14.0450   -6.6131   -1.5665 C   0  0  0  0  0  0
   12.9819   -7.6678   -1.6530 C   0  0  0  0  0  0
   13.1558   -8.7911   -2.4610 C   0  0  0  0  0  0
   12.2293   -9.7777   -2.5791 N   0  0  0  0  0  0
   11.0800   -9.6469   -1.8661 C   0  0  0  0  0  0
   10.8347   -8.5518   -1.0368 C   0  0  0  0  0  0
    9.3558   -8.4371   -0.1534 Cl  0  0  0  0  0  0
   11.7974   -7.5486   -0.9280 C   0  0  0  0  0  0
   13.6938   -5.2911   -1.3206 C   0  0  0  0  0  0
   14.8018   -2.4366    0.3808 C   0  0  0  0  0  0
   15.9555   -2.3727    0.8023 O   0  0  0  0  0  0
   14.6434   -1.5360    2.8465 H   0  0  0  0  0  0
   13.1696   -0.5934    2.5182 H   0  0  0  0  0  0
   13.0422   -2.2637    3.1201 H   0  0  0  0  0  0
   10.3569   -2.1711    0.1770 H   0  0  0  0  0  0
   12.1898   -2.9389   -1.5657 H   0  0  0  0  0  0
   15.6165   -3.6735   -3.2034 H   0  0  0  0  0  0
   16.5293   -2.2455   -5.0028 H   0  0  0  0  0  0
   16.2797    0.2106   -4.8780 H   0  0  0  0  0  0
   15.1174    1.2386   -2.9539 H   0  0  0  0  0  0
   14.2046   -0.1894   -1.1545 H   0  0  0  0  0  0
   16.7818   -3.8978   -1.3439 H   0  0  0  0  0  0
   17.4063   -6.2491   -1.7812 H   0  0  0  0  0  0
   15.6545   -7.9872   -1.9237 H   0  0  0  0  0  0
   14.0671   -8.9091   -3.0353 H   0  0  0  0  0  0
   10.3438  -10.4344   -1.9622 H   0  0  0  0  0  0
   11.6284   -6.6912   -0.2915 H   0  0  0  0  0  0
   12.6536   -5.0226   -1.1915 H   0  0  0  0  0  0
   10.9776   -1.6430    1.7737 H   0  0  0  0  0  0
  1  2  1  0  0  0
  1 28  1  0  0  0
  1 29  1  0  0  0
  1 30  1  0  0  0
  2  3  1  0  0  0
  2 26  1  0  0  0
  3  4  1  0  0  0
  3  5  2  0  0  0
  4 31  1  0  0  0
  4 45  1  0  0  0
  5  6  1  0  0  0
  5 32  1  0  0  0
  6  7  1  0  0  0
  6 13  1  0  0  0
  6 26  1  0  0  0
  7  8  2  0  0  0
  7 12  1  0  0  0
  8  9  1  0  0  0
  8 33  1  0  0  0
  9 10  2  0  0  0
  9 34  1  0  0  0
 10 11  1  0  0  0
 10 35  1  0  0  0
 11 12  2  0  0  0
 11 36  1  0  0  0
 12 37  1  0  0  0
 13 14  2  0  0  0
 13 25  1  0  0  0
 14 15  1  0  0  0
 14 38  1  0  0  0
 15 16  2  0  0  0
 15 39  1  0  0  0
 16 17  1  0  0  0
 16 40  1  0  0  0
 17 18  1  0  0  0
 17 25  2  0  0  0
 18 19  2  0  0  0
 18 24  1  0  0  0
 19 20  1  0  0  0
 19 41  1  0  0  0
 20 21  2  0  0  0
 21 22  1  0  0  0
 21 42  1  0  0  0
 22 23  1  0  0  0
 22 24  2  0  0  0
 24 43  1  0  0  0
 25 44  1  0  0  0
 26 27  2  0  0  0
M  CHG  1   5   1
M  END
> <s_m_entry_id>
1112

> <s_m_entry_name>
Bace_CAT-4p.1

> <s_m_Source_Path>
C:\Users\yujiethinkpad\Desktop\05A\BACE

> <s_m_Source_File>
Bace_CAT-4p.sdf

> <i_m_Source_File_Index>
1

> <s_m_job_name>
align_ligands_4

> <r_user_dG.exp>
-10.083

> <r_m_Molecular_weight>
377.85681

> <i_phase_Input_Structure_Number>
18

> <i_phase_Structure_Number>
18

> <i_phase_Reference_Structure>
36

> <s_phase_Core_SMARTS>
a1aaaaa1A2(A(=A)AA=[A]2)a3aa(aaa3)-a4aaaaa4

> <r_phase_Similarity_to_Reference>
0.821926046521564

> <s_phase_Alignment_Method>
flexible least-squares core

> <s_phase_Alignment_Reason>
stereochemistry change

> <s_m_subgroup_title>
align_ligands_4

> <s_m_subgroupid>
align_ligands_4

> <b_m_subgroup_collapsed>
0

$$$$
