CAT-4o
                    3D
 Schrodinger Suite 2021-2.
 45 48  0  0  1  0            999 V2000
   13.6112   -1.5899    2.4855 C   0  0  0  0  0  0
   13.6026   -2.0838    1.1116 N   0  0  0  0  0  0
   12.5145   -2.2674    0.3722 C   0  0  0  0  0  0
   11.1484   -2.0044    0.8149 N   0  0  0  0  0  0
   12.8524   -2.7266   -0.8320 N   0  3  0  0  0  0
   14.2991   -2.8881   -0.9757 C   0  0  2  0  0  0
   14.8533   -2.0208   -2.0668 C   0  0  0  0  0  0
   15.5082   -2.5981   -3.1483 C   0  0  0  0  0  0
   16.0218   -1.7946   -4.1593 C   0  0  0  0  0  0
   15.8805   -0.4138   -4.0889 C   0  0  0  0  0  0
   15.2256    0.1635   -3.0075 C   0  0  0  0  0  0
   14.7120   -0.6400   -1.9965 C   0  0  0  0  0  0
   14.6793   -4.3146   -1.2411 C   0  0  0  0  0  0
   16.0158   -4.6584   -1.4058 C   0  0  0  0  0  0
   16.3681   -5.9802   -1.6517 C   0  0  0  0  0  0
   15.3839   -6.9581   -1.7330 C   0  0  0  0  0  0
   14.0473   -6.6143   -1.5683 C   0  0  0  0  0  0
   12.9851   -7.6697   -1.6560 C   0  0  0  0  0  0
   13.1646   -8.7933   -2.4667 C   0  0  0  0  0  0
   12.2294   -9.7754   -2.5775 N   0  0  0  0  0  0
   11.0781   -9.6400   -1.8612 C   0  0  0  0  0  0
   10.8270   -8.5458   -1.0299 C   0  0  0  0  0  0
    9.6692   -8.4530   -0.3371 F   0  0  0  0  0  0
   11.7976   -7.5479   -0.9285 C   0  0  0  0  0  0
   13.6950   -5.2925   -1.3223 C   0  0  0  0  0  0
   14.7995   -2.4378    0.3807 C   0  0  0  0  0  0
   15.9529   -2.3732    0.8033 O   0  0  0  0  0  0
   14.6384   -1.5378    2.8465 H   0  0  0  0  0  0
   13.1642   -0.5963    2.5171 H   0  0  0  0  0  0
   13.0374   -2.2667    3.1185 H   0  0  0  0  0  0
   10.3546   -2.1753    0.1730 H   0  0  0  0  0  0
   12.1896   -2.9413   -1.5682 H   0  0  0  0  0  0
   15.6182   -3.6732   -3.2031 H   0  0  0  0  0  0
   16.5316   -2.2441   -5.0012 H   0  0  0  0  0  0
   16.2803    0.2118   -4.8761 H   0  0  0  0  0  0
   15.1155    1.2386   -2.9527 H   0  0  0  0  0  0
   14.2021   -0.1906   -1.1545 H   0  0  0  0  0  0
   16.7821   -3.8971   -1.3425 H   0  0  0  0  0  0
   17.4086   -6.2479   -1.7800 H   0  0  0  0  0  0
   15.6581   -7.9871   -1.9245 H   0  0  0  0  0  0
   14.0750   -8.9140   -3.0418 H   0  0  0  0  0  0
   10.3392  -10.4244   -1.9541 H   0  0  0  0  0  0
   11.6284   -6.6908   -0.2924 H   0  0  0  0  0  0
   12.6545   -5.0248   -1.1941 H   0  0  0  0  0  0
   10.9736   -1.6471    1.7704 H   0  0  0  0  0  0
  1  2  1  0  0  0
  1 28  1  0  0  0
  1 29  1  0  0  0
  1 30  1  0  0  0
  2  3  1  0  0  0
  2 26  1  0  0  0
  3  4  1  0  0  0
  3  5  2  0  0  0
  4 31  1  0  0  0
  4 45  1  0  0  0
  5  6  1  0  0  0
  5 32  1  0  0  0
  6  7  1  0  0  0
  6 13  1  0  0  0
  6 26  1  0  0  0
  7  8  2  0  0  0
  7 12  1  0  0  0
  8  9  1  0  0  0
  8 33  1  0  0  0
  9 10  2  0  0  0
  9 34  1  0  0  0
 10 11  1  0  0  0
 10 35  1  0  0  0
 11 12  2  0  0  0
 11 36  1  0  0  0
 12 37  1  0  0  0
 13 14  2  0  0  0
 13 25  1  0  0  0
 14 15  1  0  0  0
 14 38  1  0  0  0
 15 16  2  0  0  0
 15 39  1  0  0  0
 16 17  1  0  0  0
 16 40  1  0  0  0
 17 18  1  0  0  0
 17 25  2  0  0  0
 18 19  2  0  0  0
 18 24  1  0  0  0
 19 20  1  0  0  0
 19 41  1  0  0  0
 20 21  2  0  0  0
 21 22  1  0  0  0
 21 42  1  0  0  0
 22 23  1  0  0  0
 22 24  2  0  0  0
 24 43  1  0  0  0
 25 44  1  0  0  0
 26 27  2  0  0  0
M  CHG  1   5   1
M  END
> <s_m_entry_id>
1111

> <s_m_entry_name>
Bace_CAT-4o.1

> <s_m_Source_Path>
C:\Users\yujiethinkpad\Desktop\05A\BACE

> <s_m_Source_File>
Bace_CAT-4o.sdf

> <i_m_Source_File_Index>
1

> <s_m_job_name>
align_ligands_4

> <r_user_dG.exp>
-9.383

> <r_m_Molecular_weight>
361.40221

> <i_phase_Input_Structure_Number>
17

> <i_phase_Structure_Number>
17

> <i_phase_Reference_Structure>
36

> <s_phase_Core_SMARTS>
a1aaaaa1A2(A(=A)AA=[A]2)a3aa(aaa3)-a4aaaaa4

> <r_phase_Similarity_to_Reference>
0.828517262437652

> <s_phase_Alignment_Method>
flexible least-squares core

> <s_phase_Alignment_Reason>
stereochemistry change

> <s_m_subgroup_title>
align_ligands_4

> <s_m_subgroupid>
align_ligands_4

> <b_m_subgroup_collapsed>
0

$$$$
