CAT-13n
                    3D
 Schrodinger Suite 2021-2.
 44 47  0  0  1  0            999 V2000
   13.6074   -1.5722    2.4612 C   0  0  0  0  0  0
   13.6029   -2.0697    1.0886 N   0  0  0  0  0  0
   12.5169   -2.2571    0.3471 C   0  0  0  0  0  0
   11.1492   -1.9953    0.7859 N   0  0  0  0  0  0
   12.8584   -2.7187   -0.8552 N   0  3  0  0  0  0
   14.3057   -2.8780   -0.9950 C   0  0  1  0  0  0
   14.6890   -4.3046   -1.2559 C   0  0  0  0  0  0
   16.0265   -4.6465   -1.4165 C   0  0  0  0  0  0
   16.3817   -5.9682   -1.6582 C   0  0  0  0  0  0
   15.3994   -6.9481   -1.7393 C   0  0  0  0  0  0
   14.0619   -6.6062   -1.5786 C   0  0  0  0  0  0
   13.0017   -7.6637   -1.6661 C   0  0  0  0  0  0
   11.8193   -7.5381   -0.9431 C   0  0  0  0  0  0
   10.8365   -8.5219   -1.0264 C   0  0  0  0  0  0
   11.0275   -9.6399   -1.8334 C   0  0  0  0  0  0
   12.2089   -9.7662   -2.5563 C   0  0  0  0  0  0
   12.4587  -11.1472   -3.5607 Cl  0  0  0  0  0  0
   13.1905   -8.7826   -2.4725 C   0  0  0  0  0  0
   13.7067   -5.2844   -1.3369 C   0  0  0  0  0  0
   14.8610   -2.0126   -2.0871 C   0  0  0  0  0  0
   15.4946   -2.6330   -3.1162 N   0  0  0  0  0  0
   15.9931   -1.8362   -4.0992 C   0  0  0  0  0  0
   15.8647   -0.4484   -4.0610 C   0  0  0  0  0  0
   15.1993    0.1024   -2.9666 C   0  0  0  0  0  0
   14.6909   -0.6700   -1.9694 N   0  0  0  0  0  0
   14.8022   -2.4234    0.3614 C   0  0  0  0  0  0
   15.9544   -2.3557    0.7865 O   0  0  0  0  0  0
   14.6336   -1.5175    2.8245 H   0  0  0  0  0  0
   13.1585   -0.5793    2.4893 H   0  0  0  0  0  0
   13.0333   -2.2485    3.0946 H   0  0  0  0  0  0
   10.3573   -2.1693    0.1426 H   0  0  0  0  0  0
   12.1977   -2.9365   -1.5924 H   0  0  0  0  0  0
   16.7913   -3.8836   -1.3534 H   0  0  0  0  0  0
   17.4230   -6.2344   -1.7833 H   0  0  0  0  0  0
   15.6759   -7.9771   -1.9275 H   0  0  0  0  0  0
   11.6625   -6.6722   -0.3133 H   0  0  0  0  0  0
    9.9200   -8.4177   -0.4616 H   0  0  0  0  0  0
   10.2660  -10.4039   -1.8990 H   0  0  0  0  0  0
   14.1050   -8.8901   -3.0382 H   0  0  0  0  0  0
   12.6654   -5.0182   -1.2118 H   0  0  0  0  0  0
   16.5006   -2.3214   -4.9251 H   0  0  0  0  0  0
   16.2647    0.1749   -4.8476 H   0  0  0  0  0  0
   15.0689    1.1752   -2.8823 H   0  0  0  0  0  0
   10.9716   -1.6359    1.7401 H   0  0  0  0  0  0
  1  2  1  0  0  0
  1 28  1  0  0  0
  1 29  1  0  0  0
  1 30  1  0  0  0
  2  3  1  0  0  0
  2 26  1  0  0  0
  3  4  1  0  0  0
  3  5  2  0  0  0
  4 31  1  0  0  0
  4 44  1  0  0  0
  5  6  1  0  0  0
  5 32  1  0  0  0
  6  7  1  0  0  0
  6 20  1  0  0  0
  6 26  1  0  0  0
  7  8  2  0  0  0
  7 19  1  0  0  0
  8  9  1  0  0  0
  8 33  1  0  0  0
  9 10  2  0  0  0
  9 34  1  0  0  0
 10 11  1  0  0  0
 10 35  1  0  0  0
 11 12  1  0  0  0
 11 19  2  0  0  0
 12 13  2  0  0  0
 12 18  1  0  0  0
 13 14  1  0  0  0
 13 36  1  0  0  0
 14 15  2  0  0  0
 14 37  1  0  0  0
 15 16  1  0  0  0
 15 38  1  0  0  0
 16 17  1  0  0  0
 16 18  2  0  0  0
 18 39  1  0  0  0
 19 40  1  0  0  0
 20 21  2  0  0  0
 20 25  1  0  0  0
 21 22  1  0  0  0
 22 23  2  0  0  0
 22 41  1  0  0  0
 23 24  1  0  0  0
 23 42  1  0  0  0
 24 25  2  0  0  0
 24 43  1  0  0  0
 26 27  2  0  0  0
M  CHG  1   5   1
M  END
> <s_m_entry_id>
1125

> <s_m_entry_name>
Bace_CAT-13n.1

> <s_m_Source_Path>
C:\Users\yujiethinkpad\Desktop\05A\BACE

> <s_m_Source_File>
Bace_CAT-13n.sdf

> <i_m_Source_File_Index>
1

> <s_m_job_name>
align_ligands_4

> <r_user_dG.exp>
-8.543

> <r_m_Molecular_weight>
378.84439

> <i_phase_Input_Structure_Number>
31

> <i_phase_Structure_Number>
31

> <i_phase_Reference_Structure>
36

> <s_phase_Core_SMARTS>
a1aaaaa1A2(A(=A)AA=[A]2)a3aa(aaa3)-a4aaaaa4

> <r_phase_Similarity_to_Reference>
0.791959524843682

> <s_phase_Alignment_Method>
flexible least-squares core

> <s_phase_Alignment_Reason>
stereochemistry change

> <s_m_subgroup_title>
align_ligands_4

> <s_m_subgroupid>
align_ligands_4

> <b_m_subgroup_collapsed>
0

$$$$
