CAT-4d
                    3D
 Schrodinger Suite 2021-2.
 53 56  0  0  1  0            999 V2000
    8.2678   -7.2353    1.1917 C   0  0  0  0  0  0
    9.5803   -7.2512    0.4658 C   0  0  0  0  0  0
    9.6664   -8.3933   -0.3041 O   0  0  0  0  0  0
   10.8360   -8.5241   -1.0247 C   0  0  0  0  0  0
   11.0322   -9.6358   -1.8354 C   0  0  0  0  0  0
   12.2101   -9.7675   -2.5612 C   0  0  0  0  0  0
   13.1919   -8.7874   -2.4763 C   0  0  0  0  0  0
   12.9957   -7.6757   -1.6657 C   0  0  0  0  0  0
   14.0554   -6.6180   -1.5741 C   0  0  0  0  0  0
   15.3931   -6.9587   -1.7351 C   0  0  0  0  0  0
   16.3749   -5.9786   -1.6502 C   0  0  0  0  0  0
   16.0189   -4.6579   -1.4043 C   0  0  0  0  0  0
   14.6812   -4.3171   -1.2433 C   0  0  0  0  0  0
   14.2970   -2.8917   -0.9779 C   0  0  1  0  0  0
   14.8525   -2.0224   -2.0668 C   0  0  0  0  0  0
   15.5119   -2.5974   -3.1467 C   0  0  0  0  0  0
   16.0266   -1.7919   -4.1556 C   0  0  0  0  0  0
   15.8820   -0.4115   -4.0846 C   0  0  0  0  0  0
   15.2226    0.1635   -3.0047 C   0  0  0  0  0  0
   14.7079   -0.6419   -1.9958 C   0  0  0  0  0  0
   12.8496   -2.7335   -0.8384 N   0  3  0  0  0  0
   12.5072   -2.2760    0.3652 C   0  0  0  0  0  0
   11.1391   -2.0164    0.8041 N   0  0  0  0  0  0
   13.5927   -2.0906    1.1079 N   0  0  0  0  0  0
   13.5961   -1.5976    2.4822 C   0  0  0  0  0  0
   14.7925   -2.4413    0.3803 C   0  0  0  0  0  0
   15.9445   -2.3744    0.8063 O   0  0  0  0  0  0
   13.6994   -5.2972   -1.3282 C   0  0  0  0  0  0
   11.8178   -7.5440   -0.9399 C   0  0  0  0  0  0
    8.1998   -6.3333    1.7998 H   0  0  0  0  0  0
    7.4524   -7.2483    0.4684 H   0  0  0  0  0  0
    8.1974   -8.1129    1.8344 H   0  0  0  0  0  0
    9.6507   -6.3737   -0.1769 H   0  0  0  0  0  0
   10.3957   -7.2383    1.1890 H   0  0  0  0  0  0
   10.2678  -10.3988   -1.9015 H   0  0  0  0  0  0
   12.3628  -10.6330   -3.1923 H   0  0  0  0  0  0
   14.1089   -8.8900   -3.0414 H   0  0  0  0  0  0
   15.6703   -7.9870   -1.9266 H   0  0  0  0  0  0
   17.4164   -6.2439   -1.7756 H   0  0  0  0  0  0
   16.7833   -3.8948   -1.3383 H   0  0  0  0  0  0
   15.6245   -3.6721   -3.2020 H   0  0  0  0  0  0
   16.5399   -2.2396   -4.9964 H   0  0  0  0  0  0
   16.2827    0.2156   -4.8701 H   0  0  0  0  0  0
   15.1100    1.2383   -2.9494 H   0  0  0  0  0  0
   14.1946   -0.1942   -1.1550 H   0  0  0  0  0  0
   12.1894   -2.9492   -1.5767 H   0  0  0  0  0  0
   10.3477   -2.1886    0.1598 H   0  0  0  0  0  0
   14.6221   -1.5436    2.8463 H   0  0  0  0  0  0
   13.1468   -0.6051    2.5133 H   0  0  0  0  0  0
   13.0220   -2.2763    3.1131 H   0  0  0  0  0  0
   12.6579   -5.0319   -1.2028 H   0  0  0  0  0  0
   11.6651   -6.6785   -0.3087 H   0  0  0  0  0  0
   10.9608   -1.6603    1.7594 H   0  0  0  0  0  0
  1  2  1  0  0  0
  1 30  1  0  0  0
  1 31  1  0  0  0
  1 32  1  0  0  0
  2  3  1  0  0  0
  2 33  1  0  0  0
  2 34  1  0  0  0
  3  4  1  0  0  0
  4  5  2  0  0  0
  4 29  1  0  0  0
  5  6  1  0  0  0
  5 35  1  0  0  0
  6  7  2  0  0  0
  6 36  1  0  0  0
  7  8  1  0  0  0
  7 37  1  0  0  0
  8  9  1  0  0  0
  8 29  2  0  0  0
  9 10  2  0  0  0
  9 28  1  0  0  0
 10 11  1  0  0  0
 10 38  1  0  0  0
 11 12  2  0  0  0
 11 39  1  0  0  0
 12 13  1  0  0  0
 12 40  1  0  0  0
 13 14  1  0  0  0
 13 28  2  0  0  0
 14 15  1  0  0  0
 14 21  1  0  0  0
 14 26  1  0  0  0
 15 16  2  0  0  0
 15 20  1  0  0  0
 16 17  1  0  0  0
 16 41  1  0  0  0
 17 18  2  0  0  0
 17 42  1  0  0  0
 18 19  1  0  0  0
 18 43  1  0  0  0
 19 20  2  0  0  0
 19 44  1  0  0  0
 20 45  1  0  0  0
 21 22  2  0  0  0
 21 46  1  0  0  0
 22 23  1  0  0  0
 22 24  1  0  0  0
 23 47  1  0  0  0
 23 53  1  0  0  0
 24 25  1  0  0  0
 24 26  1  0  0  0
 25 48  1  0  0  0
 25 49  1  0  0  0
 25 50  1  0  0  0
 26 27  2  0  0  0
 28 51  1  0  0  0
 29 52  1  0  0  0
M  CHG  1  21   1
M  END
> <s_m_entry_id>
1105

> <s_m_entry_name>
Bace_CAT-4d.1

> <s_m_Source_Path>
C:\Users\yujiethinkpad\Desktop\05A\BACE

> <s_m_Source_File>
Bace_CAT-4d.sdf

> <i_m_Source_File_Index>
1

> <s_m_job_name>
align_ligands_4

> <r_user_dG.exp>
-9.113

> <r_m_Molecular_weight>
386.47778

> <i_phase_Input_Structure_Number>
11

> <i_phase_Structure_Number>
11

> <i_phase_Reference_Structure>
36

> <s_phase_Core_SMARTS>
a1aaaaa1A2(A(=A)AA=[A]2)a3aa(aaa3)-a4aaaaa4

> <r_phase_Similarity_to_Reference>
0.7531102909504

> <s_phase_Alignment_Method>
flexible least-squares core

> <s_phase_Alignment_Reason>
stereochemistry change

> <s_m_subgroup_title>
align_ligands_4

> <s_m_subgroupid>
align_ligands_4

> <b_m_subgroup_collapsed>
0

$$$$
