CAT-4c
                    3D
 Schrodinger Suite 2021-2.
 50 53  0  0  1  0            999 V2000
    8.9314  -10.3741   -1.1570 C   0  0  0  0  0  0
   10.0573  -10.6089   -1.9197 O   0  0  0  0  0  0
   11.0322   -9.6358   -1.8354 C   0  0  0  0  0  0
   10.8360   -8.5241   -1.0247 C   0  0  0  0  0  0
   11.8178   -7.5440   -0.9399 C   0  0  0  0  0  0
   12.9957   -7.6757   -1.6657 C   0  0  0  0  0  0
   14.0554   -6.6180   -1.5741 C   0  0  0  0  0  0
   15.3931   -6.9587   -1.7351 C   0  0  0  0  0  0
   16.3749   -5.9786   -1.6502 C   0  0  0  0  0  0
   16.0189   -4.6579   -1.4043 C   0  0  0  0  0  0
   14.6812   -4.3171   -1.2433 C   0  0  0  0  0  0
   14.2970   -2.8917   -0.9779 C   0  0  1  0  0  0
   14.8525   -2.0224   -2.0668 C   0  0  0  0  0  0
   15.5119   -2.5974   -3.1467 C   0  0  0  0  0  0
   16.0266   -1.7919   -4.1556 C   0  0  0  0  0  0
   15.8820   -0.4115   -4.0846 C   0  0  0  0  0  0
   15.2226    0.1635   -3.0047 C   0  0  0  0  0  0
   14.7079   -0.6419   -1.9958 C   0  0  0  0  0  0
   12.8496   -2.7335   -0.8384 N   0  3  0  0  0  0
   12.5072   -2.2760    0.3652 C   0  0  0  0  0  0
   11.1391   -2.0164    0.8041 N   0  0  0  0  0  0
   13.5927   -2.0906    1.1079 N   0  0  0  0  0  0
   13.5961   -1.5976    2.4822 C   0  0  0  0  0  0
   14.7925   -2.4413    0.3803 C   0  0  0  0  0  0
   15.9445   -2.3744    0.8063 O   0  0  0  0  0  0
   13.6994   -5.2972   -1.3282 C   0  0  0  0  0  0
   13.1919   -8.7874   -2.4763 C   0  0  0  0  0  0
   12.2101   -9.7675   -2.5612 C   0  0  0  0  0  0
    8.2250  -11.1934   -1.2903 H   0  0  0  0  0  0
    9.2125  -10.3041   -0.1062 H   0  0  0  0  0  0
    8.4675   -9.4395   -1.4721 H   0  0  0  0  0  0
    9.9190   -8.4215   -0.4597 H   0  0  0  0  0  0
   11.6651   -6.6785   -0.3087 H   0  0  0  0  0  0
   15.6703   -7.9870   -1.9266 H   0  0  0  0  0  0
   17.4164   -6.2439   -1.7756 H   0  0  0  0  0  0
   16.7833   -3.8948   -1.3383 H   0  0  0  0  0  0
   15.6245   -3.6721   -3.2020 H   0  0  0  0  0  0
   16.5399   -2.2396   -4.9964 H   0  0  0  0  0  0
   16.2827    0.2156   -4.8701 H   0  0  0  0  0  0
   15.1100    1.2383   -2.9494 H   0  0  0  0  0  0
   14.1946   -0.1942   -1.1550 H   0  0  0  0  0  0
   12.1894   -2.9492   -1.5767 H   0  0  0  0  0  0
   10.3477   -2.1886    0.1598 H   0  0  0  0  0  0
   14.6221   -1.5436    2.8463 H   0  0  0  0  0  0
   13.1468   -0.6051    2.5133 H   0  0  0  0  0  0
   13.0220   -2.2763    3.1131 H   0  0  0  0  0  0
   12.6579   -5.0319   -1.2028 H   0  0  0  0  0  0
   14.1089   -8.8900   -3.0414 H   0  0  0  0  0  0
   12.3628  -10.6331   -3.1923 H   0  0  0  0  0  0
   10.9608   -1.6603    1.7594 H   0  0  0  0  0  0
  1  2  1  0  0  0
  1 29  1  0  0  0
  1 30  1  0  0  0
  1 31  1  0  0  0
  2  3  1  0  0  0
  3  4  2  0  0  0
  3 28  1  0  0  0
  4  5  1  0  0  0
  4 32  1  0  0  0
  5  6  2  0  0  0
  5 33  1  0  0  0
  6  7  1  0  0  0
  6 27  1  0  0  0
  7  8  2  0  0  0
  7 26  1  0  0  0
  8  9  1  0  0  0
  8 34  1  0  0  0
  9 10  2  0  0  0
  9 35  1  0  0  0
 10 11  1  0  0  0
 10 36  1  0  0  0
 11 12  1  0  0  0
 11 26  2  0  0  0
 12 13  1  0  0  0
 12 19  1  0  0  0
 12 24  1  0  0  0
 13 14  2  0  0  0
 13 18  1  0  0  0
 14 15  1  0  0  0
 14 37  1  0  0  0
 15 16  2  0  0  0
 15 38  1  0  0  0
 16 17  1  0  0  0
 16 39  1  0  0  0
 17 18  2  0  0  0
 17 40  1  0  0  0
 18 41  1  0  0  0
 19 20  2  0  0  0
 19 42  1  0  0  0
 20 21  1  0  0  0
 20 22  1  0  0  0
 21 43  1  0  0  0
 21 50  1  0  0  0
 22 23  1  0  0  0
 22 24  1  0  0  0
 23 44  1  0  0  0
 23 45  1  0  0  0
 23 46  1  0  0  0
 24 25  2  0  0  0
 26 47  1  0  0  0
 27 28  2  0  0  0
 27 48  1  0  0  0
 28 49  1  0  0  0
M  CHG  1  19   1
M  END
> <s_m_entry_id>
1104

> <s_m_entry_name>
Bace_CAT-4c.1

> <s_m_Source_Path>
C:\Users\yujiethinkpad\Desktop\05A\BACE

> <s_m_Source_File>
Bace_CAT-4c.sdf

> <i_m_Source_File_Index>
1

> <s_m_job_name>
align_ligands_4

> <r_user_dG.exp>
-7.853

> <r_m_Molecular_weight>
372.45069

> <i_phase_Input_Structure_Number>
10

> <i_phase_Structure_Number>
10

> <i_phase_Reference_Structure>
36

> <s_phase_Core_SMARTS>
a1aaaaa1A2(A(=A)AA=[A]2)a3aa(aaa3)-a4aaaaa4

> <r_phase_Similarity_to_Reference>
0.780928502567246

> <s_phase_Alignment_Method>
flexible least-squares core

> <s_phase_Alignment_Reason>
stereochemistry change

> <s_m_subgroup_title>
align_ligands_4

> <s_m_subgroupid>
align_ligands_4

> <b_m_subgroup_collapsed>
0

$$$$
