31
                    3D
 Schrodinger Suite 2021-2.
 41 43  0  0  1  0            999 V2000
    3.8632  -49.4312    6.3228 O   0  0  0  0  0  0
    2.9544  -48.5752    6.4395 C   0  0  0  0  0  0
    3.2043  -47.3885    6.7588 O   0  5  0  0  0  0
    1.5469  -48.9837    6.2205 C   0  0  0  0  0  0
   -0.1097  -50.5773    6.2883 C   0  0  0  0  0  0
   -0.9228  -51.7182    6.4849 C   0  0  0  0  0  0
   -2.3254  -51.6092    6.3354 C   0  0  0  0  0  0
   -2.9016  -50.3767    5.9574 C   0  0  0  0  0  0
   -2.0807  -49.2483    5.7561 C   0  0  0  0  0  0
   -0.6745  -49.3072    5.9511 C   0  0  0  0  0  0
    0.3656  -48.3012    5.9626 C   0  0  0  0  0  0
    0.0627  -46.8079    5.8779 C   0  0  0  0  0  0
   -0.8268  -46.3759    7.0926 C   0  0  0  0  0  0
   -2.2423  -45.8133    6.8924 C   0  0  0  0  0  0
   -2.9561  -46.2152    8.0628 O   0  0  0  0  0  0
   -4.2577  -45.8020    8.1700 C   0  0  0  0  0  0
   -4.8774  -45.0060    7.1729 C   0  0  0  0  0  0
   -6.2130  -44.5940    7.3018 C   0  0  0  0  0  0
   -6.9201  -44.8989    8.4968 C   0  0  0  0  0  0
   -6.3017  -45.6732    9.5124 C   0  0  0  0  0  0
   -4.9850  -46.1530    9.3311 C   0  0  0  0  0  0
   -0.4751  -52.6636    6.7517 H   0  0  0  0  0  0
   -2.9557  -52.4737    6.4880 H   0  0  0  0  0  0
   -3.9711  -50.2965    5.8209 H   0  0  0  0  0  0
   -2.5422  -48.3178    5.4737 H   0  0  0  0  0  0
   -0.4507  -46.6067    4.9427 H   0  0  0  0  0  0
    0.9791  -46.2179    5.8548 H   0  0  0  0  0  0
   -0.2671  -45.8186    7.8427 H   0  0  0  0  0  0
   -1.1395  -47.3100    7.5505 H   0  0  0  0  0  0
   -2.7006  -46.2491    6.0056 H   0  0  0  0  0  0
   -2.3387  -44.7328    6.8073 H   0  0  0  0  0  0
   -4.3764  -44.7239    6.2602 H   0  0  0  0  0  0
   -4.5169  -46.7499   10.1013 H   0  0  0  0  0  0
    1.2574  -50.3463    6.3529 N   0  0  0  0  0  0
    1.9934  -51.0161    6.5539 H   0  0  0  0  0  0
   -6.8446  -45.9168   10.4137 H   0  0  0  0  0  0
   -7.9398  -44.5722    8.6236 H   0  0  0  0  0  0
   -7.9373  -43.1803    6.5081 F   0  0  0  0  0  0
   -6.8507  -43.8541    6.1117 C   0  0  0  0  0  0
   -7.2289  -44.7189    5.1607 F   0  0  0  0  0  0
   -5.9672  -43.0064    5.5508 F   0  0  0  0  0  0
  1  2  2  0  0  0
  2  3  1  0  0  0
  2  4  1  0  0  0
  4 11  2  0  0  0
  4 34  1  0  0  0
  5  6  1  0  0  0
  5 10  2  0  0  0
  5 34  1  0  0  0
  6  7  2  0  0  0
  6 22  1  0  0  0
  7  8  1  0  0  0
  7 23  1  0  0  0
  8  9  2  0  0  0
  8 24  1  0  0  0
  9 10  1  0  0  0
  9 25  1  0  0  0
 10 11  1  0  0  0
 11 12  1  0  0  0
 12 26  1  0  0  0
 12 27  1  0  0  0
 12 13  1  0  0  0
 13 14  1  0  0  0
 13 28  1  0  0  0
 13 29  1  0  0  0
 14 15  1  0  0  0
 14 30  1  0  0  0
 14 31  1  0  0  0
 15 16  1  0  0  0
 16 17  1  0  0  0
 16 21  2  0  0  0
 17 18  2  0  0  0
 17 32  1  0  0  0
 18 19  1  0  0  0
 18 39  1  0  0  0
 19 20  2  0  0  0
 19 37  1  0  0  0
 20 21  1  0  0  0
 20 36  1  0  0  0
 21 33  1  0  0  0
 34 35  1  0  0  0
 38 39  1  0  0  0
 39 40  1  0  0  0
 39 41  1  0  0  0
M  CHG  1   3  -1
M  END
> <s_m_entry_id>
375

> <s_m_entry_name>
MCL1_31.1

> <r_m_Molecular_weight>
362.3315

> <s_m_Source_Path>
C:\Users\yujiethinkpad\Desktop\05A\MCL1\original

> <s_m_Source_File>
MCL1_31.sdf

> <r_user_dG.exp>
-7.91951688961355

> <s_fepmapper_entryid>
7

> <i_fepmapper_bias>
0

> <i_fepmapper_affinity>
1

> <r_fepmapper_exp_dG>
-7.91951688961

> <i_fepmapper_unit>
1

> <i_m_Source_File_Index>
1

> <s_m_job_name>
glide-dock_SP_redock_5965

> <s_i_glide_gridfile>
glide-grid_MCL1

> <i_i_glide_lignum>
15

> <i_i_glide_rotatable_bonds>
7

> <r_i_docking_score>
-8.63871534116809

> <r_i_glide_ligand_efficiency>
-0.332258282352619

> <r_i_glide_ligand_efficiency_sa>
-0.984313854096423

> <r_i_glide_ligand_efficiency_ln>
-2.02877395193629

> <r_i_glide_gscore>
-8.63871534116809

> <r_i_glide_lipo>
-4.64831742033338

> <r_i_glide_hbond>
-0.2

> <r_i_glide_metal>
0

> <r_i_glide_rewards>
-2.82702873457507

> <r_i_glide_evdw>
-28.2233562469482

> <r_i_glide_ecoul>
-1.8543895483017

> <r_i_glide_erotb>
0.731300272525245

> <r_i_glide_esite>
-0.00534321419221611

> <r_i_glide_emodel>
-37.7088577144734

> <r_i_glide_energy>
-30.0777457952499

> <r_i_glide_einternal>
1.66930329799652

> <i_i_glide_confnum>
47

> <i_i_glide_posenum>
244

> <r_i_glide_eff_state_penalty>
0

> <r_glide_shape_similarity>
0.870930910110474

> <s_m_subgroup_title>
glide-dock_SP_redock_5965_lib1

> <s_m_subgroupid>
glide-dock_SP_redock_5965_lib1

> <b_m_subgroup_collapsed>
0

$$$$
