33
                    3D
 Schrodinger Suite 2021-2.
 38 40  0  0  1  0            999 V2000
    3.9713  -49.6064    6.4386 O   0  0  0  0  0  0
    3.0556  -48.7750    6.5639 C   0  0  0  0  0  0
    3.2603  -47.5942    6.9143 O   0  5  0  0  0  0
    1.6795  -49.1797    6.3122 C   0  0  0  0  0  0
   -0.0898  -50.6043    6.3614 C   0  0  0  0  0  0
   -1.0010  -51.6572    6.5327 C   0  0  0  0  0  0
   -2.3707  -51.4213    6.3440 C   0  0  0  0  0  0
   -2.8138  -50.1544    5.9505 C   0  0  0  0  0  0
   -1.8898  -49.1265    5.7395 C   0  0  0  0  0  0
   -0.5179  -49.3146    5.9694 C   0  0  0  0  0  0
    0.6122  -48.4553    5.8921 C   0  0  0  0  0  0
    0.6377  -47.0533    5.4195 C   0  0  0  0  0  0
    0.3230  -46.0881    6.5383 C   0  0  0  0  0  0
   -1.1686  -45.8966    6.7156 C   0  0  0  0  0  0
   -1.8595  -46.7820    7.5504 O   0  0  0  0  0  0
   -3.1191  -46.3579    7.8850 C   0  0  0  0  0  0
   -3.8555  -45.4045    7.1506 C   0  0  0  0  0  0
   -5.1276  -45.0061    7.5687 C   0  0  0  0  0  0
   -5.6389  -45.5383    8.7480 C   0  0  0  0  0  0
   -4.9525  -46.5174    9.4620 C   0  0  0  0  0  0
   -3.6941  -46.9299    9.0197 C   0  0  0  0  0  0
   -0.6524  -52.6335    6.8328 H   0  0  0  0  0  0
   -3.0832  -52.2207    6.4933 H   0  0  0  0  0  0
   -3.8666  -49.9731    5.7900 H   0  0  0  0  0  0
   -2.2470  -48.1620    5.4146 H   0  0  0  0  0  0
   -0.0487  -46.9284    4.5846 H   0  0  0  0  0  0
    1.6200  -46.8159    5.0075 H   0  0  0  0  0  0
    0.7395  -45.1258    6.2397 H   0  0  0  0  0  0
    0.8383  -46.3279    7.4672 H   0  0  0  0  0  0
   -1.6421  -45.8158    5.7267 H   0  0  0  0  0  0
   -1.2715  -45.0060    7.2954 H   0  0  0  0  0  0
   -3.4798  -44.9506    6.2469 H   0  0  0  0  0  0
   -3.1469  -47.6889    9.5560 H   0  0  0  0  0  0
    1.2772  -50.4883    6.5085 N   0  0  0  0  0  0
    1.9349  -51.1985    6.7879 H   0  0  0  0  0  0
   -5.3909  -46.9529   10.3451 H   0  0  0  0  0  0
   -7.1400  -45.0054    9.3099 Cl  0  0  0  0  0  0
   -5.6849  -44.2692    7.0091 H   0  0  0  0  0  0
  1  2  2  0  0  0
  2  3  1  0  0  0
  2  4  1  0  0  0
  4 11  2  0  0  0
  4 34  1  0  0  0
  5  6  1  0  0  0
  5 10  2  0  0  0
  5 34  1  0  0  0
  6  7  2  0  0  0
  6 22  1  0  0  0
  7  8  1  0  0  0
  7 23  1  0  0  0
  8  9  2  0  0  0
  8 24  1  0  0  0
  9 10  1  0  0  0
  9 25  1  0  0  0
 10 11  1  0  0  0
 11 12  1  0  0  0
 12 26  1  0  0  0
 12 27  1  0  0  0
 12 13  1  0  0  0
 13 14  1  0  0  0
 13 28  1  0  0  0
 13 29  1  0  0  0
 14 15  1  0  0  0
 14 30  1  0  0  0
 14 31  1  0  0  0
 15 16  1  0  0  0
 16 17  1  0  0  0
 16 21  2  0  0  0
 17 18  2  0  0  0
 17 32  1  0  0  0
 18 19  1  0  0  0
 18 38  1  0  0  0
 19 20  2  0  0  0
 19 37  1  0  0  0
 20 21  1  0  0  0
 20 36  1  0  0  0
 21 33  1  0  0  0
 34 35  1  0  0  0
M  CHG  1   3  -1
M  END
> <s_m_entry_id>
398

> <s_m_entry_name>
MCL1_33.1

> <r_m_Molecular_weight>
328.77815

> <s_m_Source_Path>
C:\Users\yujiethinkpad\Desktop\05A\MCL1\original

> <s_m_Source_File>
MCL1_33.sdf

> <r_user_dG.exp>
-6.8752436973459

> <s_fepmapper_entryid>
4

> <i_fepmapper_bias>
0

> <i_fepmapper_affinity>
1

> <r_fepmapper_exp_dG>
-6.87524369735

> <i_fepmapper_unit>
1

> <i_m_Source_File_Index>
1

> <s_m_job_name>
glide-dock_SP_redock_5965

> <s_i_glide_gridfile>
glide-grid_MCL1

> <i_i_glide_lignum>
17

> <i_i_glide_rotatable_bonds>
6

> <r_i_docking_score>
-7.6646826756758

> <r_i_glide_ligand_efficiency>
-0.33324707285547

> <r_i_glide_ligand_efficiency_sa>
-0.947710345635345

> <r_i_glide_ligand_efficiency_ln>
-1.85338977047843

> <r_i_glide_gscore>
-7.6646826756758

> <r_i_glide_lipo>
-4.54240052632906

> <r_i_glide_hbond>
-0.2

> <r_i_glide_metal>
0

> <r_i_glide_rewards>
-1.86855495595548

> <r_i_glide_evdw>
-28.3142585754395

> <r_i_glide_ecoul>
-2.11747598648071

> <r_i_glide_erotb>
0.695202197979963

> <r_i_glide_esite>
-0.0155950646271469

> <r_i_glide_emodel>
-37.6578722498782

> <r_i_glide_energy>
-30.4317345619202

> <r_i_glide_einternal>
3.54945015907288

> <i_i_glide_confnum>
38

> <i_i_glide_posenum>
116

> <r_i_glide_eff_state_penalty>
0

> <r_glide_shape_similarity>
0.88254714012146

> <s_m_subgroup_title>
glide-dock_SP_redock_5965_lib1

> <s_m_subgroupid>
glide-dock_SP_redock_5965_lib1

> <b_m_subgroup_collapsed>
0

$$$$
