37
                    3D
 Schrodinger Suite 2021-2.
 44 46  0  0  1  0            999 V2000
    3.9432  -49.6363    6.6001 O   0  0  0  0  0  0
    3.0457  -48.7672    6.5855 C   0  0  0  0  0  0
    3.2610  -47.5585    6.8362 O   0  5  0  0  0  0
    1.6618  -49.1763    6.3099 C   0  0  0  0  0  0
   -0.1051  -50.6309    6.3528 C   0  0  0  0  0  0
   -1.0181  -51.6973    6.5313 C   0  0  0  0  0  0
   -2.3974  -51.4673    6.3364 C   0  0  0  0  0  0
   -2.8608  -50.1912    5.9519 C   0  0  0  0  0  0
   -1.9381  -49.1481    5.7419 C   0  0  0  0  0  0
   -0.5524  -49.3286    5.9603 C   0  0  0  0  0  0
    0.5782  -48.4484    5.8963 C   0  0  0  0  0  0
    0.5716  -47.0181    5.4536 C   0  0  0  0  0  0
    0.4122  -46.0280    6.6241 C   0  0  0  0  0  0
   -0.9531  -46.0457    7.3257 C   0  0  0  0  0  0
   -1.9473  -45.8057    6.3503 O   0  0  0  0  0  0
   -3.1881  -45.4331    6.8039 C   0  0  0  0  0  0
   -3.7499  -45.9015    8.0171 C   0  0  0  0  0  0
   -5.0566  -45.5131    8.3893 C   0  0  0  0  0  0
   -5.6424  -46.0749    9.6722 C   0  0  0  0  0  0
   -5.8104  -44.6452    7.5525 C   0  0  0  0  0  0
   -7.4552  -44.2911    7.9484 Cl  0  0  0  0  0  0
   -5.2621  -44.2053    6.3150 C   0  0  0  0  0  0
   -6.0713  -43.4073    5.2980 C   0  0  0  0  0  0
   -3.9527  -44.6053    5.9564 C   0  0  0  0  0  0
   -0.6710  -52.6728    6.8381 H   0  0  0  0  0  0
   -3.1016  -52.2734    6.4748 H   0  0  0  0  0  0
   -3.9166  -50.0213    5.7926 H   0  0  0  0  0  0
   -2.2966  -48.1756    5.4252 H   0  0  0  0  0  0
   -0.2315  -46.8685    4.7385 H   0  0  0  0  0  0
    1.4878  -46.7956    4.9074 H   0  0  0  0  0  0
    0.6052  -45.0265    6.2432 H   0  0  0  0  0  0
    1.1884  -46.2078    7.3613 H   0  0  0  0  0  0
   -0.9745  -45.2976    8.1214 H   0  0  0  0  0  0
   -1.1553  -47.0059    7.7809 H   0  0  0  0  0  0
   -3.2045  -46.5847    8.6544 H   0  0  0  0  0  0
   -4.9587  -46.7716   10.1536 H   0  0  0  0  0  0
   -6.5811  -46.5910    9.4721 H   0  0  0  0  0  0
   -5.8407  -45.2691   10.3846 H   0  0  0  0  0  0
   -5.6149  -43.4736    4.3131 H   0  0  0  0  0  0
   -7.0863  -43.7923    5.2064 H   0  0  0  0  0  0
   -6.1161  -42.3501    5.5509 H   0  0  0  0  0  0
   -3.5342  -44.3047    5.0082 H   0  0  0  0  0  0
    1.2700  -50.4991    6.5077 N   0  0  0  0  0  0
    1.9407  -51.1965    6.8112 H   0  0  0  0  0  0
  1  2  2  0  0  0
  2  3  1  0  0  0
  2  4  1  0  0  0
  4 11  2  0  0  0
  4 43  1  0  0  0
  5  6  1  0  0  0
  5 10  2  0  0  0
  5 43  1  0  0  0
  6  7  2  0  0  0
  6 25  1  0  0  0
  7  8  1  0  0  0
  7 26  1  0  0  0
  8  9  2  0  0  0
  8 27  1  0  0  0
  9 10  1  0  0  0
  9 28  1  0  0  0
 10 11  1  0  0  0
 11 12  1  0  0  0
 12 29  1  0  0  0
 12 30  1  0  0  0
 12 13  1  0  0  0
 13 14  1  0  0  0
 13 31  1  0  0  0
 13 32  1  0  0  0
 14 15  1  0  0  0
 14 33  1  0  0  0
 14 34  1  0  0  0
 15 16  1  0  0  0
 16 17  1  0  0  0
 16 24  2  0  0  0
 17 18  2  0  0  0
 17 35  1  0  0  0
 18 19  1  0  0  0
 18 20  1  0  0  0
 19 36  1  0  0  0
 19 37  1  0  0  0
 19 38  1  0  0  0
 20 21  1  0  0  0
 20 22  2  0  0  0
 22 23  1  0  0  0
 22 24  1  0  0  0
 23 39  1  0  0  0
 23 40  1  0  0  0
 23 41  1  0  0  0
 24 42  1  0  0  0
 43 44  1  0  0  0
M  CHG  1   3  -1
M  END
> <s_m_entry_id>
382

> <s_m_entry_name>
MCL1_37.1

> <r_m_Molecular_weight>
356.83233

> <s_m_Source_Path>
C:\Users\yujiethinkpad\Desktop\05A\MCL1\original

> <s_m_Source_File>
MCL1_37.sdf

> <r_user_dG.exp>
-8.95356461676206

> <s_fepmapper_entryid>
17

> <i_fepmapper_bias>
0

> <i_fepmapper_affinity>
1

> <r_fepmapper_exp_dG>
-8.95356461676

> <i_fepmapper_unit>
1

> <i_m_Source_File_Index>
1

> <s_m_job_name>
glide-dock_SP_redock_5965

> <s_i_glide_gridfile>
glide-grid_MCL1

> <i_i_glide_lignum>
21

> <i_i_glide_rotatable_bonds>
6

> <r_i_docking_score>
-8.33708313836711

> <r_i_glide_ligand_efficiency>
-0.333483325534684

> <r_i_glide_ligand_efficiency_sa>
-0.975111158215378

> <r_i_glide_ligand_efficiency_ln>
-1.97613854601363

> <r_i_glide_gscore>
-8.33708313836711

> <r_i_glide_lipo>
-5.11871212910306

> <r_i_glide_hbond>
-0.2

> <r_i_glide_metal>
0

> <r_i_glide_rewards>
-1.71448890003392

> <r_i_glide_evdw>
-31.4004325866699

> <r_i_glide_ecoul>
-3.13275814056396

> <r_i_glide_erotb>
0.751512930677006

> <r_i_glide_esite>
-0.015459689489039

> <r_i_glide_emodel>
-46.7780351030371

> <r_i_glide_energy>
-34.5331907272339

> <r_i_glide_einternal>
4.37105560302734

> <i_i_glide_confnum>
177

> <i_i_glide_posenum>
364

> <r_i_glide_eff_state_penalty>
0

> <r_glide_shape_similarity>
0.906654059886932

> <s_m_subgroup_title>
glide-dock_SP_redock_5965_lib1

> <s_m_subgroupid>
glide-dock_SP_redock_5965_lib1

> <b_m_subgroup_collapsed>
0

$$$$
