41
                    3D
 Schrodinger Suite 2021-2.
 49 52  0  0  1  0            999 V2000
    4.0551  -50.4945    8.4303 O   0  0  0  0  0  0
    3.0684  -51.1981    8.7594 C   0  0  0  0  0  0
    3.0668  -51.9258    9.7834 O   0  5  0  0  0  0
    1.8254  -51.1402    7.9261 C   0  0  0  0  0  0
   -0.4112  -51.5409    7.5859 C   0  0  0  0  0  0
   -1.7790  -51.8945    7.6708 C   0  0  0  0  0  0
   -2.6907  -51.3977    6.7147 C   0  0  0  0  0  0
   -2.2177  -50.5971    5.6621 C   0  0  0  0  0  0
   -0.8360  -50.3361    5.5613 C   0  0  0  0  0  0
    0.0962  -50.7305    6.5289 C   0  0  0  0  0  0
    1.5142  -50.5182    6.7332 C   0  0  0  0  0  0
    2.4789  -49.7368    5.8808 C   0  0  0  0  0  0
    2.7611  -48.3239    6.4279 C   0  0  0  0  0  0
    2.4601  -47.2470    5.3687 C   0  0  0  0  0  0
    1.1465  -47.4051    4.8746 O   0  0  0  0  0  0
    0.0712  -47.0125    5.6256 C   0  0  0  0  0  0
   -1.1913  -47.4056    5.1495 C   0  0  0  0  0  0
   -2.3659  -46.9338    5.7368 C   0  0  0  0  0  0
   -2.2863  -46.0368    6.8089 C   0  0  0  0  0  0
   -1.0457  -45.8062    7.4386 C   0  0  0  0  0  0
    0.1405  -46.2063    6.7837 C   0  0  0  0  0  0
   -2.1263  -52.5147    8.4816 H   0  0  0  0  0  0
   -3.7418  -51.6373    6.7873 H   0  0  0  0  0  0
   -2.9016  -50.2146    4.9174 H   0  0  0  0  0  0
   -0.4339  -49.7973    4.7509 H   0  0  0  0  0  0
    3.4171  -50.2835    5.7953 H   0  0  0  0  0  0
    2.1069  -49.6875    4.8599 H   0  0  0  0  0  0
    2.1610  -48.1426    7.3176 H   0  0  0  0  0  0
    3.7942  -48.2597    6.7603 H   0  0  0  0  0  0
    2.6562  -46.2283    5.7067 H   0  0  0  0  0  0
    3.0735  -47.3966    4.4788 H   0  0  0  0  0  0
   -1.2845  -47.9812    4.2463 H   0  0  0  0  0  0
    1.0903  -45.9021    7.1872 H   0  0  0  0  0  0
    0.6875  -51.8074    8.3878 N   0  0  0  0  0  0
    0.7187  -52.3419    9.2498 H   0  0  0  0  0  0
   -0.9905  -45.1395    8.2872 H   0  0  0  0  0  0
   -3.3103  -47.1566    5.2736 H   0  0  0  0  0  0
   -3.3709  -45.2537    7.0702 O   0  0  0  0  0  0
   -6.1962  -46.2100    9.9502 C   0  0  0  0  0  0
   -6.4705  -45.2108    8.9947 C   0  0  0  0  0  0
   -5.5376  -44.9718    7.9712 C   0  0  0  0  0  0
   -4.3111  -45.6669    7.9574 C   0  0  0  0  0  0
   -4.0569  -46.6968    8.8873 C   0  0  0  0  0  0
   -5.0271  -46.9942    9.8529 C   0  0  0  0  0  0
   -6.8980  -46.4067   10.7420 H   0  0  0  0  0  0
   -7.3858  -44.6398    9.0466 H   0  0  0  0  0  0
   -5.7280  -44.2017    7.2391 H   0  0  0  0  0  0
   -3.1349  -47.2596    8.8842 H   0  0  0  0  0  0
   -4.8467  -47.8043   10.5456 H   0  0  0  0  0  0
  1  2  2  0  0  0
  2  3  1  0  0  0
  2  4  1  0  0  0
  4 11  2  0  0  0
  4 34  1  0  0  0
  5  6  1  0  0  0
  5 10  2  0  0  0
  5 34  1  0  0  0
  6  7  2  0  0  0
  6 22  1  0  0  0
  7  8  1  0  0  0
  7 23  1  0  0  0
  8  9  2  0  0  0
  8 24  1  0  0  0
  9 10  1  0  0  0
  9 25  1  0  0  0
 10 11  1  0  0  0
 11 12  1  0  0  0
 12 26  1  0  0  0
 12 27  1  0  0  0
 12 13  1  0  0  0
 13 14  1  0  0  0
 13 28  1  0  0  0
 13 29  1  0  0  0
 14 15  1  0  0  0
 14 30  1  0  0  0
 14 31  1  0  0  0
 15 16  1  0  0  0
 16 17  1  0  0  0
 16 21  2  0  0  0
 17 18  2  0  0  0
 17 32  1  0  0  0
 18 19  1  0  0  0
 18 37  1  0  0  0
 19 20  2  0  0  0
 19 38  1  0  0  0
 20 21  1  0  0  0
 20 36  1  0  0  0
 21 33  1  0  0  0
 34 35  1  0  0  0
 38 42  1  0  0  0
 39 40  2  0  0  0
 39 44  1  0  0  0
 39 45  1  0  0  0
 40 41  1  0  0  0
 40 46  1  0  0  0
 41 42  2  0  0  0
 41 47  1  0  0  0
 42 43  1  0  0  0
 43 44  2  0  0  0
 43 48  1  0  0  0
 44 49  1  0  0  0
M  CHG  1   3  -1
M  END
> <s_m_entry_id>
403

> <s_m_entry_name>
MCL1_41.1

> <r_m_Molecular_weight>
386.4313

> <s_m_Source_Path>
C:\Users\yujiethinkpad\Desktop\05A\MCL1\original

> <s_m_Source_File>
MCL1_41.sdf

> <r_user_dG.exp>
-7.12924538792258

> <s_fepmapper_entryid>
28

> <i_fepmapper_bias>
0

> <i_fepmapper_affinity>
1

> <r_fepmapper_exp_dG>
-7.12924538792

> <i_fepmapper_unit>
1

> <i_m_Source_File_Index>
1

> <s_m_job_name>
glide-dock_SP_redock_5965

> <s_i_glide_gridfile>
glide-grid_MCL1

> <i_i_glide_lignum>
25

> <i_i_glide_rotatable_bonds>
8

> <r_i_docking_score>
-7.37525384129711

> <r_i_glide_ligand_efficiency>
-0.254319097975763

> <r_i_glide_ligand_efficiency_sa>
-0.781348842927172

> <r_i_glide_ligand_efficiency_ln>
-1.68874610935618

> <r_i_glide_gscore>
-7.37525384129711

> <r_i_glide_lipo>
-5.54322415788845

> <r_i_glide_hbond>
0

> <r_i_glide_metal>
0

> <r_i_glide_rewards>
-1.36205039179954

> <r_i_glide_evdw>
-30.8349876403809

> <r_i_glide_ecoul>
1.06235480308533

> <r_i_glide_erotb>
0.912416869947118

> <r_i_glide_esite>
0

> <r_i_glide_emodel>
-19.3016392498715

> <r_i_glide_energy>
-29.7726328372955

> <r_i_glide_einternal>
5.85849475860596

> <i_i_glide_confnum>
105

> <i_i_glide_posenum>
242

> <r_i_glide_eff_state_penalty>
0

> <r_glide_shape_similarity>
0.68130224943161

> <s_m_subgroup_title>
glide-dock_SP_redock_5965_lib1

> <s_m_subgroupid>
glide-dock_SP_redock_5965_lib1

> <b_m_subgroup_collapsed>
0

$$$$
