44
                    3D
 Schrodinger Suite 2021-2.
 44 47  0  0  1  0            999 V2000
    3.9854  -49.5678    6.6114 O   0  0  0  0  0  0
    3.0646  -48.7204    6.6093 C   0  0  0  0  0  0
    3.2571  -47.5095    6.8803 O   0  5  0  0  0  0
    1.6803  -49.1504    6.3244 C   0  0  0  0  0  0
   -0.0908  -50.6152    6.3640 C   0  0  0  0  0  0
   -1.0024  -51.6829    6.5370 C   0  0  0  0  0  0
   -2.3854  -51.4566    6.3461 C   0  0  0  0  0  0
   -2.8468  -50.1822    5.9519 C   0  0  0  0  0  0
   -1.9289  -49.1323    5.7441 C   0  0  0  0  0  0
   -0.5401  -49.3165    5.9670 C   0  0  0  0  0  0
    0.5925  -48.4330    5.8923 C   0  0  0  0  0  0
    0.5576  -47.0049    5.4216 C   0  0  0  0  0  0
    0.3522  -46.0066    6.5677 C   0  0  0  0  0  0
   -0.9574  -46.2027    7.3693 C   0  0  0  0  0  0
   -2.1319  -45.8028    6.6887 O   0  0  0  0  0  0
   -3.2895  -45.7980    7.4476 C   0  0  0  0  0  0
   -5.5958  -45.5142    9.0748 C   0  0  0  0  0  0
   -4.5983  -46.4383    9.4277 C   0  0  0  0  0  0
   -3.4534  -46.5792    8.6259 C   0  0  0  0  0  0
   -0.6475  -52.6578    6.8377 H   0  0  0  0  0  0
   -3.0906  -52.2628    6.4916 H   0  0  0  0  0  0
   -3.9036  -50.0116    5.7959 H   0  0  0  0  0  0
   -2.2936  -48.1648    5.4336 H   0  0  0  0  0  0
    1.4737  -46.7603    4.8817 H   0  0  0  0  0  0
   -0.2523  -46.8887    4.7061 H   0  0  0  0  0  0
    1.1849  -46.1034    7.2607 H   0  0  0  0  0  0
    0.4567  -45.0053    6.1673 H   0  0  0  0  0  0
   -1.1397  -47.2534    7.5532 H   0  0  0  0  0  0
   -0.8755  -45.6840    8.3264 H   0  0  0  0  0  0
   -2.6990  -47.2618    8.9769 H   0  0  0  0  0  0
   -5.5742  -44.9187    7.7926 C   0  0  0  0  0  0
   -4.3843  -45.0059    7.0064 C   0  0  0  0  0  0
   -4.3346  -44.2982    5.7662 C   0  0  0  0  0  0
   -5.4931  -43.7022    5.2252 C   0  0  0  0  0  0
   -6.7030  -43.7308    5.9516 C   0  0  0  0  0  0
   -6.7202  -44.2547    7.2697 C   0  0  0  0  0  0
   -3.4430  -44.3151    5.1573 H   0  0  0  0  0  0
   -5.4578  -43.2456    4.2467 H   0  0  0  0  0  0
   -7.5908  -43.2814    5.5343 H   0  0  0  0  0  0
   -7.6362  -44.2072    7.8387 H   0  0  0  0  0  0
   -4.6550  -46.9802   10.3512 H   0  0  0  0  0  0
   -6.7382  -45.0102   10.2669 Cl  0  0  0  0  0  0
    1.2883  -50.4801    6.5216 N   0  0  0  0  0  0
    1.9532  -51.1861    6.8191 H   0  0  0  0  0  0
  1  2  2  0  0  0
  2  3  1  0  0  0
  2  4  1  0  0  0
  4 11  2  0  0  0
  4 43  1  0  0  0
  5  6  1  0  0  0
  5 10  2  0  0  0
  5 43  1  0  0  0
  6  7  2  0  0  0
  6 20  1  0  0  0
  7  8  1  0  0  0
  7 21  1  0  0  0
  8  9  2  0  0  0
  8 22  1  0  0  0
  9 10  1  0  0  0
  9 23  1  0  0  0
 10 11  1  0  0  0
 11 12  1  0  0  0
 12 24  1  0  0  0
 12 25  1  0  0  0
 12 13  1  0  0  0
 13 14  1  0  0  0
 13 26  1  0  0  0
 13 27  1  0  0  0
 14 15  1  0  0  0
 14 28  1  0  0  0
 14 29  1  0  0  0
 15 16  1  0  0  0
 16 19  2  0  0  0
 16 32  1  0  0  0
 17 18  2  0  0  0
 17 31  1  0  0  0
 17 42  1  0  0  0
 18 19  1  0  0  0
 18 41  1  0  0  0
 19 30  1  0  0  0
 31 32  2  0  0  0
 31 36  1  0  0  0
 32 33  1  0  0  0
 33 34  2  0  0  0
 33 37  1  0  0  0
 34 35  1  0  0  0
 34 38  1  0  0  0
 35 36  2  0  0  0
 35 39  1  0  0  0
 36 40  1  0  0  0
 43 44  1  0  0  0
M  CHG  1   3  -1
M  END
> <s_m_entry_id>
364

> <s_m_entry_name>
MCL1_44.1

> <r_m_Molecular_weight>
378.83869

> <s_m_Source_Path>
C:\Users\yujiethinkpad\Desktop\05A\MCL1\original

> <s_m_Source_File>
MCL1_44.sdf

> <r_user_dG.exp>
-8.6733813532598

> <s_fepmapper_entryid>
20

> <i_fepmapper_bias>
0

> <i_fepmapper_affinity>
1

> <r_fepmapper_exp_dG>
-8.67338135326

> <i_fepmapper_unit>
1

> <i_m_Source_File_Index>
1

> <s_m_job_name>
glide-dock_SP_redock_5965

> <s_i_glide_gridfile>
glide-grid_MCL1

> <i_i_glide_lignum>
28

> <i_i_glide_rotatable_bonds>
6

> <r_i_docking_score>
-9.14280640271601

> <r_i_glide_ligand_efficiency>
-0.338622459359852

> <r_i_glide_ligand_efficiency_sa>
-1.01586737696351

> <r_i_glide_ligand_efficiency_ln>
-2.12829459960848

> <r_i_glide_gscore>
-9.14280640271601

> <r_i_glide_lipo>
-5.73907341532243

> <r_i_glide_hbond>
-0.2

> <r_i_glide_metal>
0

> <r_i_glide_rewards>
-1.72617286363636

> <r_i_glide_evdw>
-31.8142070770264

> <r_i_glide_ecoul>
-2.71607804298401

> <r_i_glide_erotb>
0.540262106106263

> <r_i_glide_esite>
-0.0197001695645622

> <r_i_glide_emodel>
-39.349181769927

> <r_i_glide_energy>
-34.5302851200104

> <r_i_glide_einternal>
2.31498265266418

> <i_i_glide_confnum>
66

> <i_i_glide_posenum>
6

> <r_i_glide_eff_state_penalty>
0

> <r_glide_shape_similarity>
0.863142907619476

> <s_m_subgroup_title>
glide-dock_SP_redock_5965_lib1

> <s_m_subgroupid>
glide-dock_SP_redock_5965_lib1

> <b_m_subgroup_collapsed>
0

$$$$
