53
                    3D
 Schrodinger Suite 2021-2.
 44 46  0  0  1  0            999 V2000
    4.0581  -49.4334    6.4506 O   0  0  0  0  0  0
    3.1128  -48.6178    6.5054 C   0  0  0  0  0  0
    3.2599  -47.4132    6.8112 O   0  5  0  0  0  0
    1.7403  -49.0760    6.2523 C   0  0  0  0  0  0
    0.0440  -50.5859    6.3553 C   0  0  0  0  0  0
   -0.7856  -51.6851    6.6108 C   0  0  0  0  0  0
   -2.1800  -51.5232    6.5316 C   0  0  0  0  0  0
   -2.7512  -50.3042    6.0804 C   0  0  0  0  0  0
   -1.9036  -49.2114    5.7877 C   0  0  0  0  0  0
   -0.4940  -49.3170    5.9738 C   0  0  0  0  0  0
    0.6077  -48.3959    5.8738 C   0  0  0  0  0  0
    0.5307  -46.9604    5.4610 C   0  0  0  0  0  0
    0.3803  -46.0091    6.6657 C   0  0  0  0  0  0
   -0.9686  -46.0497    7.3943 C   0  0  0  0  0  0
   -1.9582  -45.8079    6.4163 O   0  0  0  0  0  0
   -3.1953  -45.4198    6.8576 C   0  0  0  0  0  0
   -3.7527  -45.8487    8.0895 C   0  0  0  0  0  0
   -5.0642  -45.4468    8.4439 C   0  0  0  0  0  0
   -5.6614  -45.9429    9.7645 C   0  0  0  0  0  0
   -5.8134  -44.6148    7.5577 C   0  0  0  0  0  0
   -7.4502  -44.2248    7.9505 Cl  0  0  0  0  0  0
   -5.2562  -44.2065    6.3089 C   0  0  0  0  0  0
   -6.0491  -43.3923    5.2836 C   0  0  0  0  0  0
   -3.9418  -44.6052    5.9729 C   0  0  0  0  0  0
   -0.3568  -52.6126    6.9506 H   0  0  0  0  0  0
   -3.1402  -52.8212    7.1298 Cl  0  0  0  0  0  0
   -3.8231  -50.1870    6.0156 H   0  0  0  0  0  0
   -2.3290  -48.2688    5.4805 H   0  0  0  0  0  0
   -0.2968  -46.8282    4.7635 H   0  0  0  0  0  0
    1.4281  -46.7001    4.8993 H   0  0  0  0  0  0
    0.5077  -45.0057    6.2869 H   0  0  0  0  0  0
    1.1728  -46.1933    7.3906 H   0  0  0  0  0  0
   -0.9926  -45.2870    8.1716 H   0  0  0  0  0  0
   -1.1504  -47.0061    7.8585 H   0  0  0  0  0  0
   -3.2016  -46.5014    8.7515 H   0  0  0  0  0  0
   -4.9177  -46.4777   10.3509 H   0  0  0  0  0  0
   -6.5060  -46.6064    9.5923 H   0  0  0  0  0  0
   -5.9985  -45.0956   10.3621 H   0  0  0  0  0  0
   -5.5891  -43.4653    4.2934 H   0  0  0  0  0  0
   -7.0709  -43.7665    5.1940 H   0  0  0  0  0  0
   -6.0797  -42.3356    5.5505 H   0  0  0  0  0  0
   -3.5287  -44.3283    5.0119 H   0  0  0  0  0  0
    1.4170  -50.4118    6.4501 N   0  0  0  0  0  0
    2.1257  -51.0842    6.7202 H   0  0  0  0  0  0
  1  2  2  0  0  0
  2  3  1  0  0  0
  2  4  1  0  0  0
  4 11  2  0  0  0
  4 43  1  0  0  0
  5  6  1  0  0  0
  5 10  2  0  0  0
  5 43  1  0  0  0
  6  7  2  0  0  0
  6 25  1  0  0  0
  7  8  1  0  0  0
  7 26  1  0  0  0
  8  9  2  0  0  0
  8 27  1  0  0  0
  9 10  1  0  0  0
  9 28  1  0  0  0
 10 11  1  0  0  0
 11 12  1  0  0  0
 12 29  1  0  0  0
 12 30  1  0  0  0
 12 13  1  0  0  0
 13 14  1  0  0  0
 13 31  1  0  0  0
 13 32  1  0  0  0
 14 15  1  0  0  0
 14 33  1  0  0  0
 14 34  1  0  0  0
 15 16  1  0  0  0
 16 17  1  0  0  0
 16 24  2  0  0  0
 17 18  2  0  0  0
 17 35  1  0  0  0
 18 19  1  0  0  0
 18 20  1  0  0  0
 19 36  1  0  0  0
 19 37  1  0  0  0
 19 38  1  0  0  0
 20 21  1  0  0  0
 20 22  2  0  0  0
 22 23  1  0  0  0
 22 24  1  0  0  0
 23 39  1  0  0  0
 23 40  1  0  0  0
 23 41  1  0  0  0
 24 42  1  0  0  0
 43 44  1  0  0  0
M  CHG  1   3  -1
M  END
> <s_m_entry_id>
385

> <s_m_entry_name>
MCL1_53.1

> <r_m_Molecular_weight>
391.27736

> <s_m_Source_Path>
C:\Users\yujiethinkpad\Desktop\05A\MCL1\original

> <s_m_Source_File>
MCL1_53.sdf

> <r_user_dG.exp>
-9.96486893166623

> <s_fepmapper_entryid>
36

> <i_fepmapper_bias>
0

> <i_fepmapper_affinity>
1

> <r_fepmapper_exp_dG>
-9.96486893167

> <i_fepmapper_unit>
1

> <i_m_Source_File_Index>
1

> <s_m_job_name>
glide-dock_SP_redock_5965

> <s_i_glide_gridfile>
glide-grid_MCL1

> <i_i_glide_lignum>
37

> <i_i_glide_rotatable_bonds>
6

> <r_i_docking_score>
-8.26786769144983

> <r_i_glide_ligand_efficiency>
-0.317994911209609

> <r_i_glide_ligand_efficiency_sa>
-0.942058673208911

> <r_i_glide_ligand_efficiency_ln>
-1.94168159825035

> <r_i_glide_gscore>
-8.26786769144983

> <r_i_glide_lipo>
-5.16709842417777

> <r_i_glide_hbond>
-0.2

> <r_i_glide_metal>
0

> <r_i_glide_rewards>
-1.50144365478533

> <r_i_glide_evdw>
-30.925853729248

> <r_i_glide_ecoul>
-3.10773015022278

> <r_i_glide_erotb>
0.637301348502223

> <r_i_glide_esite>
-0.0241747519931346

> <r_i_glide_emodel>
-42.5617242914222

> <r_i_glide_energy>
-34.0335838794708

> <r_i_glide_einternal>
5.07075834274292

> <i_i_glide_confnum>
258

> <i_i_glide_posenum>
307

> <r_i_glide_eff_state_penalty>
0

> <r_glide_shape_similarity>
0.883355855941772

> <s_m_subgroup_title>
glide-dock_SP_redock_5965_lib1

> <s_m_subgroupid>
glide-dock_SP_redock_5965_lib1

> <b_m_subgroup_collapsed>
0

$$$$
