54
                    3D
 Schrodinger Suite 2021-2.
 44 47  0  0  1  0            999 V2000
    3.2598  -47.4044    6.7531 O   0  0  0  0  0  0
    3.0997  -48.6181    6.4976 C   0  0  0  0  0  0
    4.0405  -49.4447    6.5004 O   0  5  0  0  0  0
    1.7284  -49.0716    6.2394 C   0  0  0  0  0  0
    0.0391  -50.5862    6.3486 C   0  0  0  0  0  0
   -0.7860  -51.6877    6.6008 C   0  0  0  0  0  0
   -2.1786  -51.5312    6.5062 C   0  0  0  0  0  0
   -2.7487  -50.3132    6.0595 C   0  0  0  0  0  0
   -1.9043  -49.2190    5.7675 C   0  0  0  0  0  0
   -0.4979  -49.3218    5.9510 C   0  0  0  0  0  0
    0.5943  -48.3934    5.8533 C   0  0  0  0  0  0
    0.4832  -46.9557    5.4357 C   0  0  0  0  0  0
    0.2934  -46.0206    6.6379 C   0  0  0  0  0  0
   -1.0286  -46.2057    7.4177 C   0  0  0  0  0  0
   -2.2201  -45.7213    6.7942 O   0  0  0  0  0  0
   -3.3836  -45.7739    7.5535 C   0  0  0  0  0  0
   -5.7621  -45.8032    9.1501 C   0  0  0  0  0  0
   -4.6665  -46.6073    9.5001 C   0  0  0  0  0  0
   -3.4985  -46.5971    8.7145 C   0  0  0  0  0  0
   -0.3600  -52.6202    6.9394 H   0  0  0  0  0  0
   -3.1410  -52.8445    7.0500 Cl  0  0  0  0  0  0
   -3.8212  -50.2089    5.9787 H   0  0  0  0  0  0
   -2.3352  -48.2781    5.4555 H   0  0  0  0  0  0
    1.3724  -46.6577    4.8783 H   0  0  0  0  0  0
   -0.3521  -46.8385    4.7499 H   0  0  0  0  0  0
    1.1075  -46.2060    7.3377 H   0  0  0  0  0  0
    0.4599  -45.0057    6.3144 H   0  0  0  0  0  0
   -1.1633  -47.2711    7.5509 H   0  0  0  0  0  0
   -0.9185  -45.7431    8.3996 H   0  0  0  0  0  0
   -2.7004  -47.2412    9.0414 H   0  0  0  0  0  0
   -5.7114  -45.0473    7.9569 C   0  0  0  0  0  0
   -4.5239  -45.0060    7.1518 C   0  0  0  0  0  0
   -4.5235  -44.2248    5.9511 C   0  0  0  0  0  0
   -5.7310  -43.6609    5.4851 C   0  0  0  0  0  0
   -6.9250  -43.8061    6.2362 C   0  0  0  0  0  0
   -6.9017  -44.4331    7.5037 C   0  0  0  0  0  0
   -3.6421  -44.2004    5.3268 H   0  0  0  0  0  0
   -5.7497  -43.1465    4.5355 H   0  0  0  0  0  0
   -7.8481  -43.3881    5.8633 H   0  0  0  0  0  0
   -7.8109  -44.5026    8.0835 H   0  0  0  0  0  0
   -4.7228  -47.2618   10.3512 H   0  0  0  0  0  0
   -6.6652  -45.8422    9.7419 H   0  0  0  0  0  0
    1.4088  -50.4064    6.4444 N   0  0  0  0  0  0
    2.1139  -51.0807    6.7239 H   0  0  0  0  0  0
  1  2  2  0  0  0
  2  3  1  0  0  0
  2  4  1  0  0  0
  4 11  2  0  0  0
  4 43  1  0  0  0
  5  6  1  0  0  0
  5 10  2  0  0  0
  5 43  1  0  0  0
  6  7  2  0  0  0
  6 20  1  0  0  0
  7  8  1  0  0  0
  7 21  1  0  0  0
  8  9  2  0  0  0
  8 22  1  0  0  0
  9 10  1  0  0  0
  9 23  1  0  0  0
 10 11  1  0  0  0
 11 12  1  0  0  0
 12 24  1  0  0  0
 12 25  1  0  0  0
 12 13  1  0  0  0
 13 14  1  0  0  0
 13 26  1  0  0  0
 13 27  1  0  0  0
 14 15  1  0  0  0
 14 28  1  0  0  0
 14 29  1  0  0  0
 15 16  1  0  0  0
 16 19  2  0  0  0
 16 32  1  0  0  0
 17 18  2  0  0  0
 17 31  1  0  0  0
 17 42  1  0  0  0
 18 19  1  0  0  0
 18 41  1  0  0  0
 19 30  1  0  0  0
 31 32  2  0  0  0
 31 36  1  0  0  0
 32 33  1  0  0  0
 33 34  2  0  0  0
 33 37  1  0  0  0
 34 35  1  0  0  0
 34 38  1  0  0  0
 35 36  2  0  0  0
 35 39  1  0  0  0
 36 40  1  0  0  0
 43 44  1  0  0  0
M  CHG  1   3  -1
M  END
> <s_m_entry_id>
369

> <s_m_entry_name>
MCL1_54.1

> <r_m_Molecular_weight>
378.83869

> <s_m_Source_Path>
C:\Users\yujiethinkpad\Desktop\05A\MCL1\original

> <s_m_Source_File>
MCL1_54.sdf

> <r_user_dG.exp>
-9.77997627425646

> <s_fepmapper_entryid>
19

> <i_fepmapper_bias>
0

> <i_fepmapper_affinity>
1

> <r_fepmapper_exp_dG>
-9.77997627426

> <i_fepmapper_unit>
1

> <i_m_Source_File_Index>
1

> <s_m_job_name>
glide-dock_SP_redock_5965

> <s_i_glide_gridfile>
glide-grid_MCL1

> <i_i_glide_lignum>
38

> <i_i_glide_rotatable_bonds>
6

> <r_i_docking_score>
-8.92309542938806

> <r_i_glide_ligand_efficiency>
-0.330485015903261

> <r_i_glide_ligand_efficiency_sa>
-0.991455046620559

> <r_i_glide_ligand_efficiency_ln>
-2.07714950723621

> <r_i_glide_gscore>
-8.92309542938806

> <r_i_glide_lipo>
-5.52134503255917

> <r_i_glide_hbond>
-0.2

> <r_i_glide_metal>
0

> <r_i_glide_rewards>
-1.72617286363636

> <r_i_glide_evdw>
-31.6212100982666

> <r_i_glide_ecoul>
-2.7485179901123

> <r_i_glide_erotb>
0.540262106106263

> <r_i_glide_esite>
-0.0225014358686114

> <r_i_glide_emodel>
-40.5959706264573

> <r_i_glide_energy>
-34.3697280883789

> <r_i_glide_einternal>
5.42647171020508

> <i_i_glide_confnum>
70

> <i_i_glide_posenum>
157

> <r_i_glide_eff_state_penalty>
0

> <r_glide_shape_similarity>
0.860278964042664

> <s_m_subgroup_title>
glide-dock_SP_redock_5965_lib1

> <s_m_subgroupid>
glide-dock_SP_redock_5965_lib1

> <b_m_subgroup_collapsed>
0

$$$$
