61
                    3D
 Schrodinger Suite 2021-2.
 43 45  0  0  1  0            999 V2000
    4.1964  -49.4057    6.3132 O   0  0  0  0  0  0
    3.1896  -48.7265    6.6142 C   0  0  0  0  0  0
    3.2614  -47.5983    7.1581 O   0  5  0  0  0  0
    1.8389  -49.2406    6.3245 C   0  0  0  0  0  0
    1.6138  -50.9449    6.5949 S   0  0  0  0  0  0
   -0.1214  -50.7685    6.3881 C   0  0  0  0  0  0
   -1.0954  -51.7770    6.5603 C   0  0  0  0  0  0
   -2.4594  -51.4808    6.3659 C   0  0  0  0  0  0
   -2.8351  -50.1852    5.9664 C   0  0  0  0  0  0
   -1.8483  -49.1962    5.7585 C   0  0  0  0  0  0
   -0.4671  -49.4265    6.0021 C   0  0  0  0  0  0
    0.7036  -48.5571    5.9405 C   0  0  0  0  0  0
    0.7470  -47.0989    5.5730 C   0  0  0  0  0  0
    0.6014  -46.2041    6.8071 C   0  0  0  0  0  0
   -0.8141  -45.7630    7.1643 C   0  0  0  0  0  0
   -1.7739  -46.6027    7.7860 O   0  0  0  0  0  0
   -3.0515  -46.0606    7.8247 C   0  0  0  0  0  0
   -3.5757  -45.1627    6.8340 C   0  0  0  0  0  0
   -4.8826  -44.6121    6.9227 C   0  0  0  0  0  0
   -5.3883  -43.7216    5.7909 C   0  0  0  0  0  0
   -5.6829  -45.0039    8.0285 C   0  0  0  0  0  0
   -7.2955  -44.4165    8.1517 Cl  0  0  0  0  0  0
   -5.1900  -45.9122    9.0079 C   0  0  0  0  0  0
   -6.0587  -46.3206   10.1865 C   0  0  0  0  0  0
   -3.8888  -46.4547    8.8890 C   0  0  0  0  0  0
   -0.7897  -52.7698    6.8591 H   0  0  0  0  0  0
   -3.2092  -52.2476    6.5105 H   0  0  0  0  0  0
   -3.8752  -49.9568    5.7805 H   0  0  0  0  0  0
   -2.3402  -47.6828    5.1339 Cl  0  0  0  0  0  0
    0.0708  -46.8396    4.7591 H   0  0  0  0  0  0
    1.7382  -46.8749    5.1871 H   0  0  0  0  0  0
    1.1153  -45.2909    6.5267 H   0  0  0  0  0  0
    1.1704  -46.5723    7.6533 H   0  0  0  0  0  0
   -1.1824  -45.4081    6.2150 H   0  0  0  0  0  0
   -0.7399  -44.9450    7.8631 H   0  0  0  0  0  0
   -3.0352  -44.8801    5.9486 H   0  0  0  0  0  0
   -5.0359  -44.1021    4.8306 H   0  0  0  0  0  0
   -5.0068  -42.7059    5.9000 H   0  0  0  0  0  0
   -6.4757  -43.6783    5.7359 H   0  0  0  0  0  0
   -5.8739  -47.3684   10.4185 H   0  0  0  0  0  0
   -5.8700  -45.6638   11.0334 H   0  0  0  0  0  0
   -7.1196  -46.2361    9.9701 H   0  0  0  0  0  0
   -3.5174  -47.1440    9.6345 H   0  0  0  0  0  0
  1  2  2  0  0  0
  2  3  1  0  0  0
  2  4  1  0  0  0
  4  5  1  0  0  0
  4 12  2  0  0  0
  5  6  1  0  0  0
  6  7  1  0  0  0
  6 11  2  0  0  0
  7  8  2  0  0  0
  7 26  1  0  0  0
  8  9  1  0  0  0
  8 27  1  0  0  0
  9 10  2  0  0  0
  9 28  1  0  0  0
 10 11  1  0  0  0
 10 29  1  0  0  0
 11 12  1  0  0  0
 12 13  1  0  0  0
 13 30  1  0  0  0
 13 31  1  0  0  0
 13 14  1  0  0  0
 14 15  1  0  0  0
 14 32  1  0  0  0
 14 33  1  0  0  0
 15 16  1  0  0  0
 15 34  1  0  0  0
 15 35  1  0  0  0
 16 17  1  0  0  0
 17 18  1  0  0  0
 17 25  2  0  0  0
 18 19  2  0  0  0
 18 36  1  0  0  0
 19 20  1  0  0  0
 19 21  1  0  0  0
 20 37  1  0  0  0
 20 38  1  0  0  0
 20 39  1  0  0  0
 21 22  1  0  0  0
 21 23  2  0  0  0
 23 24  1  0  0  0
 23 25  1  0  0  0
 24 40  1  0  0  0
 24 41  1  0  0  0
 24 42  1  0  0  0
 25 43  1  0  0  0
M  CHG  1   3  -1
M  END
> <s_m_entry_id>
394

> <s_m_entry_name>
MCL1_61.1

> <r_m_Molecular_weight>
408.32669

> <s_m_Source_Path>
C:\Users\yujiethinkpad\Desktop\05A\MCL1\original

> <s_m_Source_File>
MCL1_61.sdf

> <r_user_dG.exp>
-8.07943709994224

> <s_fepmapper_entryid>
25

> <i_fepmapper_bias>
0

> <i_fepmapper_affinity>
1

> <r_fepmapper_exp_dG>
-8.07943709994

> <i_fepmapper_unit>
1

> <i_m_Source_File_Index>
1

> <s_m_job_name>
glide-dock_SP_redock_5965

> <s_i_glide_gridfile>
glide-grid_MCL1

> <i_i_glide_lignum>
1

> <i_i_glide_rotatable_bonds>
6

> <r_i_docking_score>
-7.81201818250009

> <r_i_glide_ligand_efficiency>
-0.300462237788465

> <r_i_glide_ligand_efficiency_sa>
-0.890118197186511

> <r_i_glide_ligand_efficiency_ln>
-1.83462683683774

> <r_i_glide_gscore>
-7.81201818250009

> <r_i_glide_lipo>
-5.34460370579316

> <r_i_glide_hbond>
-0.2

> <r_i_glide_metal>
0

> <r_i_glide_rewards>
-1.39782261311831

> <r_i_glide_evdw>
-21.8258533477783

> <r_i_glide_ecoul>
-2.24301362037659

> <r_i_glide_erotb>
0.590202387595814

> <r_i_glide_esite>
-0.0320495407390252

> <r_i_glide_emodel>
-38.6176162937932

> <r_i_glide_energy>
-24.0688669681549

> <r_i_glide_einternal>
8.45917320251465

> <i_i_glide_confnum>
201

> <i_i_glide_posenum>
314

> <r_i_glide_eff_state_penalty>
0

> <r_glide_shape_similarity>
0.942815780639648

> <s_m_subgroup_title>
glide-dock_SP_redock_5965_lib1

> <s_m_subgroupid>
glide-dock_SP_redock_5965_lib1

> <b_m_subgroup_collapsed>
0

$$$$
