62
                    3D
 Schrodinger Suite 2021-2.
 43 46  0  0  1  0            999 V2000
    2.0599  -46.7389    5.4616 O   0  0  0  0  0  0
    2.2496  -47.7206    6.2229 C   0  0  0  0  0  0
    3.2602  -47.7962    6.9627 O   0  5  0  0  0  0
    1.2382  -48.8145    6.2598 C   0  0  0  0  0  0
    1.8838  -50.3399    6.8002 S   0  0  0  0  0  0
    0.2975  -51.0777    6.7336 C   0  0  0  0  0  0
   -0.0024  -52.4046    7.1101 C   0  0  0  0  0  0
   -1.3242  -52.8799    7.0258 C   0  0  0  0  0  0
   -2.3322  -52.0271    6.5417 C   0  0  0  0  0  0
   -2.0287  -50.7084    6.1465 C   0  0  0  0  0  0
   -0.7019  -50.1659    6.2417 C   0  0  0  0  0  0
   -0.1086  -48.8653    5.9122 C   0  0  0  0  0  0
   -0.8322  -47.7598    5.1706 C   0  0  0  0  0  0
   -1.8579  -46.9397    5.9560 C   0  0  0  0  0  0
   -1.3333  -46.0874    7.1033 C   0  0  0  0  0  0
   -2.3725  -45.1600    7.3730 O   0  0  0  0  0  0
   -3.5535  -45.6168    7.9334 C   0  0  0  0  0  0
   -5.9092  -46.0823    9.4462 C   0  0  0  0  0  0
   -4.7528  -46.8460    9.6847 C   0  0  0  0  0  0
   -3.5801  -46.6066    8.9478 C   0  0  0  0  0  0
    0.7845  -53.0543    7.4730 H   0  0  0  0  0  0
   -1.5585  -53.8931    7.3155 H   0  0  0  0  0  0
   -3.3463  -52.3926    6.4557 H   0  0  0  0  0  0
   -3.3654  -49.8057    5.5538 Cl  0  0  0  0  0  0
   -0.1479  -47.0712    4.6865 H   0  0  0  0  0  0
   -1.3698  -48.2129    4.3412 H   0  0  0  0  0  0
   -2.3569  -46.2888    5.2375 H   0  0  0  0  0  0
   -2.6406  -47.5709    6.3629 H   0  0  0  0  0  0
   -1.1402  -46.7013    7.9616 H   0  0  0  0  0  0
   -0.4149  -45.5622    6.8414 H   0  0  0  0  0  0
   -2.6999  -47.1471    9.2455 H   0  0  0  0  0  0
   -5.9387  -45.2096    8.3361 C   0  0  0  0  0  0
   -4.7759  -45.0076    7.5381 C   0  0  0  0  0  0
   -4.8661  -44.2187    6.3509 C   0  0  0  0  0  0
   -6.1257  -43.7804    5.8990 C   0  0  0  0  0  0
   -7.2688  -43.9508    6.7170 C   0  0  0  0  0  0
   -7.1593  -44.6070    7.9639 C   0  0  0  0  0  0
   -3.9920  -44.0581    5.7343 H   0  0  0  0  0  0
   -6.2213  -43.2633    4.9564 H   0  0  0  0  0  0
   -8.2192  -43.5535    6.3942 H   0  0  0  0  0  0
   -8.0335  -44.7475    8.5793 H   0  0  0  0  0  0
   -4.7426  -47.5971   10.4567 H   0  0  0  0  0  0
   -6.7923  -46.2465   10.0475 H   0  0  0  0  0  0
  1  2  2  0  0  0
  2  3  1  0  0  0
  2  4  1  0  0  0
  4  5  1  0  0  0
  4 12  2  0  0  0
  5  6  1  0  0  0
  6  7  1  0  0  0
  6 11  2  0  0  0
  7  8  2  0  0  0
  7 21  1  0  0  0
  8  9  1  0  0  0
  8 22  1  0  0  0
  9 10  2  0  0  0
  9 23  1  0  0  0
 10 11  1  0  0  0
 10 24  1  0  0  0
 11 12  1  0  0  0
 12 13  1  0  0  0
 13 25  1  0  0  0
 13 26  1  0  0  0
 13 14  1  0  0  0
 14 15  1  0  0  0
 14 27  1  0  0  0
 14 28  1  0  0  0
 15 16  1  0  0  0
 15 29  1  0  0  0
 15 30  1  0  0  0
 16 17  1  0  0  0
 17 20  2  0  0  0
 17 33  1  0  0  0
 18 19  2  0  0  0
 18 32  1  0  0  0
 18 43  1  0  0  0
 19 20  1  0  0  0
 19 42  1  0  0  0
 20 31  1  0  0  0
 32 33  2  0  0  0
 32 37  1  0  0  0
 33 34  1  0  0  0
 34 35  2  0  0  0
 34 38  1  0  0  0
 35 36  1  0  0  0
 35 39  1  0  0  0
 36 37  2  0  0  0
 36 40  1  0  0  0
 37 41  1  0  0  0
M  CHG  1   3  -1
M  END
> <s_m_entry_id>
367

> <s_m_entry_name>
MCL1_62.1

> <r_m_Molecular_weight>
395.88802

> <s_m_Source_Path>
C:\Users\yujiethinkpad\Desktop\05A\MCL1\original

> <s_m_Source_File>
MCL1_62.sdf

> <r_user_dG.exp>
-7.95565704541698

> <s_fepmapper_entryid>
24

> <i_fepmapper_bias>
0

> <i_fepmapper_affinity>
1

> <r_fepmapper_exp_dG>
-7.95565704542

> <i_fepmapper_unit>
1

> <i_m_Source_File_Index>
1

> <s_m_job_name>
glide-dock_SP_redock_5965

> <s_i_glide_gridfile>
glide-grid_MCL1

> <i_i_glide_lignum>
2

> <i_i_glide_rotatable_bonds>
6

> <r_i_docking_score>
-9.00621681709689

> <r_i_glide_ligand_efficiency>
-0.333563585818403

> <r_i_glide_ligand_efficiency_sa>
-1.00069075635584

> <r_i_glide_ligand_efficiency_ln>
-2.09649879593165

> <r_i_glide_gscore>
-9.00621681709689

> <r_i_glide_lipo>
-5.39146424042955

> <r_i_glide_hbond>
-0.2

> <r_i_glide_metal>
0

> <r_i_glide_rewards>
-2.02111988589345

> <r_i_glide_evdw>
-30.5245246887207

> <r_i_glide_ecoul>
-2.44413995742798

> <r_i_glide_erotb>
0.499214537276342

> <r_i_glide_esite>
0

> <r_i_glide_emodel>
-31.9988688540439

> <r_i_glide_energy>
-32.9686646461487

> <r_i_glide_einternal>
6.60661363601685

> <i_i_glide_confnum>
32

> <i_i_glide_posenum>
139

> <r_i_glide_eff_state_penalty>
0

> <r_glide_shape_similarity>
0.793967068195343

> <s_m_subgroup_title>
glide-dock_SP_redock_5965_lib1

> <s_m_subgroupid>
glide-dock_SP_redock_5965_lib1

> <b_m_subgroup_collapsed>
0

$$$$
