64
                    3D
 Schrodinger Suite 2021-2.
 43 46  0  0  1  0            999 V2000
    3.2589  -47.4121    6.9094 O   0  0  0  0  0  0
    3.1751  -48.6063    6.5322 C   0  0  0  0  0  0
    4.1868  -49.3294    6.3697 O   0  5  0  0  0  0
    1.8368  -49.1720    6.3051 C   0  0  0  0  0  0
    1.7559  -50.8688    6.6524 S   0  0  0  0  0  0
    0.0306  -50.8381    6.4460 C   0  0  0  0  0  0
   -0.8253  -51.8962    6.7321 C   0  0  0  0  0  0
   -2.1979  -51.7289    6.5682 C   0  0  0  0  0  0
   -2.7195  -50.5538    5.9836 C   0  0  0  0  0  0
   -1.8315  -49.5169    5.6332 C   0  0  0  0  0  0
   -0.4422  -49.5784    5.9555 C   0  0  0  0  0  0
    0.6373  -48.6072    5.9093 C   0  0  0  0  0  0
    0.4726  -47.2007    5.4349 C   0  0  0  0  0  0
   -0.2255  -46.3004    6.4481 C   0  0  0  0  0  0
   -1.7416  -46.5243    6.6079 C   0  0  0  0  0  0
   -2.4263  -45.4153    7.1732 O   0  0  0  0  0  0
   -3.5806  -45.7140    7.8685 C   0  0  0  0  0  0
   -5.8285  -46.0203    9.5731 C   0  0  0  0  0  0
   -4.6376  -46.7333    9.8466 C   0  0  0  0  0  0
   -3.5365  -46.6043    8.9757 C   0  0  0  0  0  0
   -0.4301  -52.8149    7.1397 H   0  0  0  0  0  0
   -3.1705  -53.0063    7.1486 Cl  0  0  0  0  0  0
   -3.7800  -50.4527    5.8050 H   0  0  0  0  0  0
   -2.2416  -48.6535    5.1470 H   0  0  0  0  0  0
    1.4349  -46.7713    5.1526 H   0  0  0  0  0  0
   -0.1049  -47.1862    4.5121 H   0  0  0  0  0  0
    0.2980  -46.2042    7.3995 H   0  0  0  0  0  0
   -0.0710  -45.4054    5.9207 H   0  0  0  0  0  0
   -2.1843  -46.6397    5.6186 H   0  0  0  0  0  0
   -1.9155  -47.4367    7.1723 H   0  0  0  0  0  0
   -2.6233  -47.1160    9.2273 H   0  0  0  0  0  0
   -5.9274  -45.2109    8.4126 C   0  0  0  0  0  0
   -4.8044  -45.0462    7.5481 C   0  0  0  0  0  0
   -4.9477  -44.2684    6.3506 C   0  0  0  0  0  0
   -6.2267  -43.8065    5.9574 C   0  0  0  0  0  0
   -7.3432  -43.9806    6.8214 C   0  0  0  0  0  0
   -7.1671  -44.6107    8.0793 C   0  0  0  0  0  0
   -4.1110  -44.1431    5.6804 H   0  0  0  0  0  0
   -6.3470  -43.3041    5.0081 H   0  0  0  0  0  0
   -8.3334  -43.6180    6.5477 H   0  0  0  0  0  0
   -8.0080  -44.7249    8.7450 H   0  0  0  0  0  0
   -4.5377  -47.3425   10.7453 H   0  0  0  0  0  0
   -6.6748  -46.1226   10.2351 H   0  0  0  0  0  0
  1  2  2  0  0  0
  2  3  1  0  0  0
  2  4  1  0  0  0
  4  5  1  0  0  0
  4 12  2  0  0  0
  5  6  1  0  0  0
  6  7  1  0  0  0
  6 11  2  0  0  0
  7  8  2  0  0  0
  7 21  1  0  0  0
  8  9  1  0  0  0
  8 22  1  0  0  0
  9 10  2  0  0  0
  9 23  1  0  0  0
 10 11  1  0  0  0
 10 24  1  0  0  0
 11 12  1  0  0  0
 12 13  1  0  0  0
 13 25  1  0  0  0
 13 26  1  0  0  0
 13 14  1  0  0  0
 14 15  1  0  0  0
 14 27  1  0  0  0
 14 28  1  0  0  0
 15 16  1  0  0  0
 15 29  1  0  0  0
 15 30  1  0  0  0
 16 17  1  0  0  0
 17 20  2  0  0  0
 17 33  1  0  0  0
 18 19  2  0  0  0
 18 32  1  0  0  0
 18 43  1  0  0  0
 19 20  1  0  0  0
 19 42  1  0  0  0
 20 31  1  0  0  0
 32 33  2  0  0  0
 32 37  1  0  0  0
 33 34  1  0  0  0
 34 35  2  0  0  0
 34 38  1  0  0  0
 35 36  1  0  0  0
 35 39  1  0  0  0
 36 37  2  0  0  0
 36 40  1  0  0  0
 37 41  1  0  0  0
M  CHG  1   3  -1
M  END
> <s_m_entry_id>
376

> <s_m_entry_name>
MCL1_64.1

> <r_m_Molecular_weight>
395.88802

> <s_m_Source_Path>
C:\Users\yujiethinkpad\Desktop\05A\MCL1\original

> <s_m_Source_File>
MCL1_64.sdf

> <r_user_dG.exp>
-9.4997930107542

> <s_fepmapper_entryid>
27

> <i_fepmapper_bias>
0

> <i_fepmapper_affinity>
1

> <r_fepmapper_exp_dG>
-9.49979301075

> <i_fepmapper_unit>
1

> <i_m_Source_File_Index>
1

> <s_m_job_name>
glide-dock_SP_redock_5965

> <s_i_glide_gridfile>
glide-grid_MCL1

> <i_i_glide_lignum>
4

> <i_i_glide_rotatable_bonds>
6

> <r_i_docking_score>
-8.59623114947524

> <r_i_glide_ligand_efficiency>
-0.318378931462046

> <r_i_glide_ligand_efficiency_sa>
-0.955136793336813

> <r_i_glide_ligand_efficiency_ln>
-2.00106089165132

> <r_i_glide_gscore>
-8.59623114947524

> <r_i_glide_lipo>
-5.49074188231993

> <r_i_glide_hbond>
-0.2

> <r_i_glide_metal>
0

> <r_i_glide_rewards>
-1.60991359090909

> <r_i_glide_evdw>
-28.1558780670166

> <r_i_glide_ecoul>
-2.36651110649109

> <r_i_glide_erotb>
0.499214537276342

> <r_i_glide_esite>
-0.0320196441980659

> <r_i_glide_emodel>
-33.7348973647256

> <r_i_glide_energy>
-30.5223891735077

> <r_i_glide_einternal>
4.35436820983887

> <i_i_glide_confnum>
9

> <i_i_glide_posenum>
223

> <r_i_glide_eff_state_penalty>
0

> <r_glide_shape_similarity>
0.852858364582062

> <s_m_subgroup_title>
glide-dock_SP_redock_5965_lib1

> <s_m_subgroupid>
glide-dock_SP_redock_5965_lib1

> <b_m_subgroup_collapsed>
0

$$$$
