66
                    3D
 Schrodinger Suite 2021-2.
 43 46  0  0  1  0            999 V2000
    4.1136  -49.3646    6.3508 O   0  0  0  0  0  0
    3.1234  -48.6135    6.5266 C   0  0  0  0  0  0
    3.2577  -47.4339    6.9362 O   0  5  0  0  0  0
    1.7582  -49.1449    6.2882 C   0  0  0  0  0  0
    1.5765  -50.8561    6.5903 S   0  0  0  0  0  0
   -0.1716  -50.7522    6.3794 C   0  0  0  0  0  0
   -1.1419  -51.7624    6.5666 C   0  0  0  0  0  0
   -2.5088  -51.4756    6.3607 C   0  0  0  0  0  0
   -2.9055  -50.1890    5.9473 C   0  0  0  0  0  0
   -1.9321  -49.1941    5.7382 C   0  0  0  0  0  0
   -0.5510  -49.4330    5.9773 C   0  0  0  0  0  0
    0.5769  -48.5355    5.9083 C   0  0  0  0  0  0
    0.3860  -47.1335    5.4799 C   0  0  0  0  0  0
    0.0207  -46.2397    6.6558 C   0  0  0  0  0  0
   -1.3330  -46.3552    7.4352 C   0  0  0  0  0  0
   -2.4918  -45.7064    6.8728 O   0  0  0  0  0  0
   -3.6837  -45.7316    7.6094 C   0  0  0  0  0  0
   -6.1448  -45.7384    9.1226 C   0  0  0  0  0  0
   -5.0417  -46.5169    9.5191 C   0  0  0  0  0  0
   -3.8314  -46.5098    8.7922 C   0  0  0  0  0  0
   -0.6732  -53.3502    7.0783 Cl  0  0  0  0  0  0
   -3.2540  -52.2444    6.5127 H   0  0  0  0  0  0
   -3.9496  -49.9674    5.7784 H   0  0  0  0  0  0
   -2.2552  -48.2143    5.4162 H   0  0  0  0  0  0
    1.2958  -46.7635    5.0059 H   0  0  0  0  0  0
   -0.3836  -47.0643    4.7131 H   0  0  0  0  0  0
    0.8617  -46.2116    7.3439 H   0  0  0  0  0  0
    0.0577  -45.3617    6.1037 H   0  0  0  0  0  0
   -1.5614  -47.4023    7.5924 H   0  0  0  0  0  0
   -1.1672  -45.9116    8.4169 H   0  0  0  0  0  0
   -3.0355  -47.1323    9.1695 H   0  0  0  0  0  0
   -6.0814  -45.0137    7.9097 C   0  0  0  0  0  0
   -4.8362  -44.9946    7.1658 C   0  0  0  0  0  0
   -4.7810  -44.2069    5.9735 C   0  0  0  0  0  0
   -5.9591  -43.6302    5.4529 C   0  0  0  0  0  0
   -7.2042  -43.8063    6.1123 C   0  0  0  0  0  0
   -7.2967  -44.4700    7.3602 C   0  0  0  0  0  0
   -3.8671  -44.1421    5.4058 H   0  0  0  0  0  0
   -5.9168  -43.0924    4.5168 H   0  0  0  0  0  0
   -8.0957  -43.4039    5.6583 H   0  0  0  0  0  0
   -8.3296  -44.5964    7.7696 H   0  0  0  0  0  0
   -5.1390  -47.1836   10.3526 H   0  0  0  0  0  0
   -7.0695  -45.7925    9.6786 H   0  0  0  0  0  0
  1  2  2  0  0  0
  2  3  1  0  0  0
  2  4  1  0  0  0
  4  5  1  0  0  0
  4 12  2  0  0  0
  5  6  1  0  0  0
  6  7  1  0  0  0
  6 11  2  0  0  0
  7  8  2  0  0  0
  7 21  1  0  0  0
  8  9  1  0  0  0
  8 22  1  0  0  0
  9 10  2  0  0  0
  9 23  1  0  0  0
 10 11  1  0  0  0
 10 24  1  0  0  0
 11 12  1  0  0  0
 12 13  1  0  0  0
 13 25  1  0  0  0
 13 26  1  0  0  0
 13 14  1  0  0  0
 14 15  1  0  0  0
 14 27  1  0  0  0
 14 28  1  0  0  0
 15 16  1  0  0  0
 15 29  1  0  0  0
 15 30  1  0  0  0
 16 17  1  0  0  0
 17 20  2  0  0  0
 17 33  1  0  0  0
 18 19  2  0  0  0
 18 32  1  0  0  0
 18 43  1  0  0  0
 19 20  1  0  0  0
 19 42  1  0  0  0
 20 31  1  0  0  0
 32 33  2  0  0  0
 32 37  1  0  0  0
 33 34  1  0  0  0
 34 35  2  0  0  0
 34 38  1  0  0  0
 35 36  1  0  0  0
 35 39  1  0  0  0
 36 37  2  0  0  0
 36 40  1  0  0  0
 37 41  1  0  0  0
M  CHG  1   3  -1
M  END
> <s_m_entry_id>
368

> <s_m_entry_name>
MCL1_66.1

> <r_m_Molecular_weight>
395.88802

> <s_m_Source_Path>
C:\Users\yujiethinkpad\Desktop\05A\MCL1\original

> <s_m_Source_File>
MCL1_66.sdf

> <r_user_dG.exp>
-8.43167143836328

> <s_fepmapper_entryid>
15

> <i_fepmapper_bias>
0

> <i_fepmapper_affinity>
1

> <r_fepmapper_exp_dG>
-8.43167143836

> <i_fepmapper_unit>
1

> <i_m_Source_File_Index>
1

> <s_m_job_name>
glide-dock_SP_redock_5965

> <s_i_glide_gridfile>
glide-grid_MCL1

> <i_i_glide_lignum>
6

> <i_i_glide_rotatable_bonds>
6

> <r_i_docking_score>
-8.97731223325758

> <r_i_glide_ligand_efficiency>
-0.332493045676207

> <r_i_glide_ligand_efficiency_sa>
-0.997479135932777

> <r_i_glide_ligand_efficiency_ln>
-2.08977028534317

> <r_i_glide_gscore>
-8.97731223325758

> <r_i_glide_lipo>
-5.63949211936721

> <r_i_glide_hbond>
-0.2

> <r_i_glide_metal>
0

> <r_i_glide_rewards>
-1.60991359090909

> <r_i_glide_evdw>
-32.1335563659668

> <r_i_glide_ecoul>
-2.6287534236908

> <r_i_glide_erotb>
0.499214537276342

> <r_i_glide_esite>
-0.0261302284056622

> <r_i_glide_emodel>
-42.4190662772063

> <r_i_glide_energy>
-34.7623097896576

> <r_i_glide_einternal>
5.22086906433105

> <i_i_glide_confnum>
21

> <i_i_glide_posenum>
268

> <r_i_glide_eff_state_penalty>
0

> <r_glide_shape_similarity>
0.862161159515381

> <s_m_subgroup_title>
glide-dock_SP_redock_5965_lib1

> <s_m_subgroupid>
glide-dock_SP_redock_5965_lib1

> <b_m_subgroup_collapsed>
0

$$$$
