67
                    3D
 Schrodinger Suite 2021-2.
 43 45  0  0  1  0            999 V2000
    3.9609  -49.5982    6.3576 O   0  0  0  0  0  0
    3.0434  -48.7709    6.4791 C   0  0  0  0  0  0
    3.2601  -47.5707    6.7558 O   0  5  0  0  0  0
    1.6569  -49.1871    6.2739 C   0  0  0  0  0  0
   -0.0868  -50.5526    6.3510 C   0  0  0  0  0  0
   -0.9612  -51.6350    6.5370 C   0  0  0  0  0  0
   -2.3402  -51.4281    6.3494 C   0  0  0  0  0  0
   -2.8175  -50.1754    5.9460 C   0  0  0  0  0  0
   -1.9180  -49.1182    5.7377 C   0  0  0  0  0  0
   -0.5410  -49.2852    5.9561 C   0  0  0  0  0  0
    0.5904  -48.4330    5.8803 C   0  0  0  0  0  0
    0.5823  -47.0062    5.4384 C   0  0  0  0  0  0
    0.3929  -46.0467    6.6126 C   0  0  0  0  0  0
   -0.9553  -46.1888    7.3031 C   0  0  0  0  0  0
   -1.9376  -45.8053    6.3757 O   0  0  0  0  0  0
   -3.1556  -45.4587    6.8814 C   0  0  0  0  0  0
   -3.6595  -45.9847    8.0894 C   0  0  0  0  0  0
   -4.9495  -45.6279    8.5038 C   0  0  0  0  0  0
   -5.4943  -46.1853    9.8006 C   0  0  0  0  0  0
   -5.7284  -44.7696    7.7090 C   0  0  0  0  0  0
   -7.3344  -44.4474    8.1907 Cl  0  0  0  0  0  0
   -5.2372  -44.2391    6.4906 C   0  0  0  0  0  0
   -6.1278  -43.4853    5.5207 C   0  0  0  0  0  0
   -3.9431  -44.6064    6.0923 C   0  0  0  0  0  0
   -0.5733  -52.5942    6.8369 H   0  0  0  0  0  0
   -3.0282  -52.2480    6.5020 H   0  0  0  0  0  0
   -3.8667  -50.0328    5.7678 H   0  0  0  0  0  0
   -2.2999  -48.1652    5.4202 H   0  0  0  0  0  0
   -0.2150  -46.8534    4.7193 H   0  0  0  0  0  0
    1.4999  -46.7617    4.9134 H   0  0  0  0  0  0
    0.5107  -45.0243    6.2590 H   0  0  0  0  0  0
    1.1857  -46.2011    7.3450 H   0  0  0  0  0  0
   -0.9810  -45.5810    8.2062 H   0  0  0  0  0  0
   -1.1425  -47.2198    7.5517 H   0  0  0  0  0  0
   -3.0856  -46.6715    8.6895 H   0  0  0  0  0  0
   -4.7247  -46.7330   10.3432 H   0  0  0  0  0  0
   -6.3235  -46.8677    9.6108 H   0  0  0  0  0  0
   -5.8489  -45.3737   10.4427 H   0  0  0  0  0  0
   -5.5565  -43.1367    4.6575 H   0  0  0  0  0  0
   -6.8962  -44.1690    5.1605 H   0  0  0  0  0  0
   -6.6200  -42.6137    5.9500 H   0  0  0  0  0  0
   -3.5548  -44.2558    5.1535 H   0  0  0  0  0  0
    1.2779  -50.4940    6.5161 O   0  0  0  0  0  0
  1  2  2  0  0  0
  2  3  1  0  0  0
  2  4  1  0  0  0
  4 11  2  0  0  0
  4 43  1  0  0  0
  5  6  1  0  0  0
  5 10  2  0  0  0
  5 43  1  0  0  0
  6  7  2  0  0  0
  6 25  1  0  0  0
  7  8  1  0  0  0
  7 26  1  0  0  0
  8  9  2  0  0  0
  8 27  1  0  0  0
  9 10  1  0  0  0
  9 28  1  0  0  0
 10 11  1  0  0  0
 11 12  1  0  0  0
 12 29  1  0  0  0
 12 30  1  0  0  0
 12 13  1  0  0  0
 13 14  1  0  0  0
 13 31  1  0  0  0
 13 32  1  0  0  0
 14 15  1  0  0  0
 14 33  1  0  0  0
 14 34  1  0  0  0
 15 16  1  0  0  0
 16 17  1  0  0  0
 16 24  2  0  0  0
 17 18  2  0  0  0
 17 35  1  0  0  0
 18 19  1  0  0  0
 18 20  1  0  0  0
 19 36  1  0  0  0
 19 37  1  0  0  0
 19 38  1  0  0  0
 20 21  1  0  0  0
 20 22  2  0  0  0
 22 23  1  0  0  0
 22 24  1  0  0  0
 23 39  1  0  0  0
 23 40  1  0  0  0
 23 41  1  0  0  0
 24 42  1  0  0  0
M  CHG  1   3  -1
M  END
> <s_m_entry_id>
390

> <s_m_entry_name>
MCL1_67.1

> <r_m_Molecular_weight>
357.81706

> <s_m_Source_Path>
C:\Users\yujiethinkpad\Desktop\05A\MCL1\original

> <s_m_Source_File>
MCL1_67.sdf

> <r_user_dG.exp>
-7.58092456527552

> <s_fepmapper_entryid>
41

> <i_fepmapper_bias>
0

> <i_fepmapper_affinity>
1

> <r_fepmapper_exp_dG>
-7.58092456528

> <i_fepmapper_unit>
1

> <i_m_Source_File_Index>
1

> <s_m_job_name>
glide-dock_SP_redock_5965

> <s_i_glide_gridfile>
glide-grid_MCL1

> <i_i_glide_lignum>
7

> <i_i_glide_rotatable_bonds>
6

> <r_i_docking_score>
-8.14547219435499

> <r_i_glide_ligand_efficiency>
-0.3258188877742

> <r_i_glide_ligand_efficiency_sa>
-0.952700206274339

> <r_i_glide_ligand_efficiency_ln>
-1.93072101016613

> <r_i_glide_gscore>
-8.14547219435499

> <r_i_glide_lipo>
-5.06991638240153

> <r_i_glide_hbond>
-0.2

> <r_i_glide_metal>
0

> <r_i_glide_rewards>
-1.78667381551357

> <r_i_glide_evdw>
-28.1192836761475

> <r_i_glide_ecoul>
-2.7882604598999

> <r_i_glide_erotb>
0.74783252790683

> <r_i_glide_esite>
-0.0125112715543595

> <r_i_glide_emodel>
-43.8611560552799

> <r_i_glide_energy>
-30.9075441360474

> <r_i_glide_einternal>
4.02506399154663

> <i_i_glide_confnum>
271

> <i_i_glide_posenum>
62

> <r_i_glide_eff_state_penalty>
0

> <r_glide_shape_similarity>
0.916146814823151

> <s_m_subgroup_title>
glide-dock_SP_redock_5965_lib1

> <s_m_subgroupid>
glide-dock_SP_redock_5965_lib1

> <b_m_subgroup_collapsed>
0

$$$$
