p38a_2ee
                    3D
 Schrodinger Suite 2021-2.
 52 55  0  0  1  0            999 V2000
   38.3523   35.9571   16.5941 C   0  0  0  0  0  0
   34.5037   35.3125   21.0474 C   0  0  0  0  0  0
   38.0347   35.9039   17.9661 C   0  0  0  0  0  0
   33.5478   39.1840   23.6539 C   0  0  0  0  0  0
   34.9091   38.0884   21.6266 C   0  0  0  0  0  0
   35.7378   37.4057   20.6515 C   0  0  0  0  0  0
   37.3127   35.9421   15.6463 C   0  0  0  0  0  0
   35.9874   35.7390   16.0682 C   0  0  0  0  0  0
   35.6844   35.6404   17.4385 C   0  0  0  0  0  0
   33.9117   37.3527   22.2978 C   0  0  0  0  0  0
   35.1229   39.4201   22.0239 C   0  0  0  0  0  0
   35.5727   36.0920   20.4213 C   0  0  0  0  0  0
   36.7096   35.7291   18.3908 C   0  0  0  0  0  0
   32.5859   35.2499   22.5409 C   0  0  0  0  0  0
   38.9963   35.8783   18.9039 F   0  0  0  0  0  0
   36.5025   35.4107   19.7022 O   0  0  0  0  0  0
   34.4460   39.9633   23.0550 N   0  0  0  0  0  0
   34.3566   34.1126   20.7986 O   0  0  0  0  0  0
   33.6930   35.9852   21.9138 N   0  0  0  0  0  0
   33.2344   37.9366   23.3083 N   0  0  0  0  0  0
   32.8017   39.7686   24.7644 N   0  0  0  0  0  0
   39.3818   36.0297   16.2822 H   0  0  0  0  0  0
   36.5083   37.9898   20.1734 H   0  0  0  0  0  0
   35.1946   35.6496   15.3401 H   0  0  0  0  0  0
   34.6633   35.4774   17.7502 H   0  0  0  0  0  0
   35.8572   40.0380   21.5309 H   0  0  0  0  0  0
   31.7825   35.9154   22.8483 H   0  0  0  0  0  0
   32.1300   34.5217   21.8663 H   0  0  0  0  0  0
   32.9410   34.7224   23.4276 H   0  0  0  0  0  0
   32.9830   40.7461   25.0519 H   0  0  0  0  0  0
   37.5705   36.1909   14.3430 F   0  0  0  0  0  0
   33.4490   38.0259   27.1920 C   0  0  0  0  0  0
   32.1791   38.8763   26.9602 C   0  0  0  0  0  0
   31.8001   38.9742   25.4694 C   0  0  0  0  0  0
   31.7157   37.5731   24.8327 C   0  0  0  0  0  0
   32.9883   36.7319   25.0828 C   0  0  0  0  0  0
   33.2134   36.7243   26.5416 N   0  0  0  0  0  0
   33.6703   37.9408   28.2587 H   0  0  0  0  0  0
   34.3118   38.5054   26.7252 H   0  0  0  0  0  0
   32.3279   39.8760   27.3710 H   0  0  0  0  0  0
   31.3468   38.4461   27.5207 H   0  0  0  0  0  0
   30.8533   39.5042   25.3509 H   0  0  0  0  0  0
   30.8486   37.0427   25.2314 H   0  0  0  0  0  0
   31.5410   37.6629   23.7595 H   0  0  0  0  0  0
   32.8799   35.7285   24.6645 H   0  0  0  0  0  0
   33.8476   37.1925   24.5917 H   0  0  0  0  0  0
   33.0689   35.6086   27.2888 C   0  0  0  0  0  0
   32.7988   34.4966   26.8249 O   0  0  0  0  0  0
   33.2782   35.8777   28.7495 C   0  0  0  0  0  0
   33.5033   36.9341   28.8958 H   0  0  0  0  0  0
   32.3734   35.6194   29.2998 H   0  0  0  0  0  0
   34.1099   35.2750   29.1145 H   0  0  0  0  0  0
  1  3  1  0  0  0
  1  7  2  0  0  0
  1 22  1  0  0  0
  2 12  1  0  0  0
  2 18  2  0  0  0
  2 19  1  0  0  0
  3 13  2  0  0  0
  3 15  1  0  0  0
  4 17  1  0  0  0
  4 20  2  0  0  0
  4 21  1  0  0  0
  5  6  1  0  0  0
  5 10  2  0  0  0
  5 11  1  0  0  0
  6 12  2  0  0  0
  6 23  1  0  0  0
  7  8  1  0  0  0
  7 31  1  0  0  0
  8  9  2  0  0  0
  8 24  1  0  0  0
  9 13  1  0  0  0
  9 25  1  0  0  0
 10 19  1  0  0  0
 10 20  1  0  0  0
 11 17  2  0  0  0
 11 26  1  0  0  0
 12 16  1  0  0  0
 13 16  1  0  0  0
 14 19  1  0  0  0
 14 27  1  0  0  0
 14 28  1  0  0  0
 14 29  1  0  0  0
 21 30  1  0  0  0
 21 34  1  0  0  0
 32 33  1  0  0  0
 32 37  1  0  0  0
 32 38  1  0  0  0
 32 39  1  0  0  0
 33 34  1  0  0  0
 33 40  1  0  0  0
 33 41  1  0  0  0
 34 35  1  0  0  0
 34 42  1  0  0  0
 35 36  1  0  0  0
 35 43  1  0  0  0
 35 44  1  0  0  0
 36 37  1  0  0  0
 36 45  1  0  0  0
 36 46  1  0  0  0
 37 47  1  0  0  0
 47 48  2  0  0  0
 47 49  1  0  0  0
 49 50  1  0  0  0
 49 51  1  0  0  0
 49 52  1  0  0  0
M  END
> <s_m_entry_id>
305

> <s_m_entry_name>
p38_p38a_2ee.1

> <r_user_dG.exp>
-12.264

> <r_m_Molecular_weight>
429.43002

> <s_m_Source_Path>
C:\Users\yujiethinkpad\Desktop\05A\p38

> <s_m_Source_File>
p38_p38a_2ee.sdf

> <i_m_Source_File_Index>
1

> <s_m_job_name>
align_ligands_7680

> <i_phase_Input_Structure_Number>
13

> <i_phase_Structure_Number>
13

> <r_phase_Similarity_to_Reference>
0.790307860696904

> <i_phase_Reference_Structure>
1

> <s_phase_Alignment_Method>
snapped core

> <s_phase_Alignment_Reason>


> <s_phase_Core_SMARTS>
a1aaaa(a12)aa(a(=A)[a]2)Aa3aaaaa3

> <s_f3d_frozen_atoms>
20 4 17 11 5 10 6 12 2 18 19 16 13 9 8 7 1 3 26 23 18 25 24 31 22 15

> <s_m_subgroup_title>
align_ligands_7680

> <s_m_subgroupid>
align_ligands_7680

> <b_m_subgroup_collapsed>
0

$$$$
