p38a_2gg
                    3D
 Schrodinger Suite 2021-2.
 48 51  0  0  1  0            999 V2000
   38.3523   35.9571   16.5941 C   0  0  0  0  0  0
   34.5037   35.3125   21.0474 C   0  0  0  0  0  0
   38.0347   35.9039   17.9661 C   0  0  0  0  0  0
   33.5478   39.1840   23.6539 C   0  0  0  0  0  0
   34.9091   38.0884   21.6266 C   0  0  0  0  0  0
   35.7378   37.4057   20.6515 C   0  0  0  0  0  0
   37.3127   35.9421   15.6463 C   0  0  0  0  0  0
   35.9874   35.7390   16.0682 C   0  0  0  0  0  0
   35.6844   35.6404   17.4385 C   0  0  0  0  0  0
   33.9117   37.3527   22.2978 C   0  0  0  0  0  0
   35.1229   39.4201   22.0239 C   0  0  0  0  0  0
   35.5727   36.0920   20.4213 C   0  0  0  0  0  0
   36.7096   35.7291   18.3908 C   0  0  0  0  0  0
   32.5859   35.2499   22.5409 C   0  0  0  0  0  0
   38.9963   35.8783   18.9039 F   0  0  0  0  0  0
   36.5025   35.4107   19.7022 O   0  0  0  0  0  0
   34.4460   39.9633   23.0550 N   0  0  0  0  0  0
   34.3566   34.1126   20.7986 O   0  0  0  0  0  0
   33.6930   35.9852   21.9138 N   0  0  0  0  0  0
   33.2344   37.9366   23.3083 N   0  0  0  0  0  0
   32.8017   39.7686   24.7644 N   0  0  0  0  0  0
   39.3818   36.0297   16.2822 H   0  0  0  0  0  0
   36.5083   37.9898   20.1734 H   0  0  0  0  0  0
   35.1946   35.6496   15.3401 H   0  0  0  0  0  0
   34.6633   35.4774   17.7502 H   0  0  0  0  0  0
   35.8572   40.0380   21.5309 H   0  0  0  0  0  0
   31.7825   35.9154   22.8483 H   0  0  0  0  0  0
   32.1300   34.5217   21.8663 H   0  0  0  0  0  0
   32.9410   34.7224   23.4276 H   0  0  0  0  0  0
   32.9830   40.7461   25.0519 H   0  0  0  0  0  0
   37.5705   36.1909   14.3430 F   0  0  0  0  0  0
   32.0879   40.3605   27.6178 C   0  0  0  0  0  0
   31.1080   39.8406   26.5421 C   0  0  0  0  0  0
   31.8001   38.9742   25.4694 C   0  0  0  0  0  0
   32.4497   37.6896   26.0246 C   0  0  0  0  0  0
   33.5740   37.9780   27.0446 C   0  0  0  0  0  0
   31.5943   40.9537   28.3837 H   0  0  0  0  0  0
   32.8874   40.9591   27.1880 H   0  0  0  0  0  0
   30.6185   40.6886   26.0578 H   0  0  0  0  0  0
   30.3043   39.2694   27.0134 H   0  0  0  0  0  0
   31.0640   38.6973   24.7118 H   0  0  0  0  0  0
   31.6835   37.0583   26.4814 H   0  0  0  0  0  0
   32.8541   37.1045   25.1955 H   0  0  0  0  0  0
   34.0162   37.0710   27.4495 H   0  0  0  0  0  0
   34.3705   38.5815   26.6160 H   0  0  0  0  0  0
   32.9142   38.9386   28.5055 S   0  0  0  0  0  0
   34.0386   39.4489   29.3000 O   0  0  0  0  0  0
   31.8946   38.1368   29.1947 O   0  0  0  0  0  0
  1  3  1  0  0  0
  1  7  2  0  0  0
  1 22  1  0  0  0
  2 12  1  0  0  0
  2 18  2  0  0  0
  2 19  1  0  0  0
  3 13  2  0  0  0
  3 15  1  0  0  0
  4 17  1  0  0  0
  4 20  2  0  0  0
  4 21  1  0  0  0
  5  6  1  0  0  0
  5 10  2  0  0  0
  5 11  1  0  0  0
  6 12  2  0  0  0
  6 23  1  0  0  0
  7  8  1  0  0  0
  7 31  1  0  0  0
  8  9  2  0  0  0
  8 24  1  0  0  0
  9 13  1  0  0  0
  9 25  1  0  0  0
 10 19  1  0  0  0
 10 20  1  0  0  0
 11 17  2  0  0  0
 11 26  1  0  0  0
 12 16  1  0  0  0
 13 16  1  0  0  0
 14 19  1  0  0  0
 14 27  1  0  0  0
 14 28  1  0  0  0
 14 29  1  0  0  0
 21 30  1  0  0  0
 21 34  1  0  0  0
 32 33  1  0  0  0
 32 37  1  0  0  0
 32 38  1  0  0  0
 32 46  1  0  0  0
 33 34  1  0  0  0
 33 39  1  0  0  0
 33 40  1  0  0  0
 34 35  1  0  0  0
 34 41  1  0  0  0
 35 36  1  0  0  0
 35 42  1  0  0  0
 35 43  1  0  0  0
 36 44  1  0  0  0
 36 45  1  0  0  0
 36 46  1  0  0  0
 46 47  2  0  0  0
 46 48  2  0  0  0
M  END
> <s_m_entry_id>
309

> <s_m_entry_name>
p38_p38a_2gg.1

> <r_user_dG.exp>
-10.661

> <r_m_Molecular_weight>
436.44051

> <s_m_Source_Path>
C:\Users\yujiethinkpad\Desktop\05A\p38

> <s_m_Source_File>
p38_p38a_2gg.sdf

> <i_m_Source_File_Index>
1

> <s_m_job_name>
align_ligands_7680

> <i_phase_Input_Structure_Number>
17

> <i_phase_Structure_Number>
17

> <r_phase_Similarity_to_Reference>
0.838125880256493

> <i_phase_Reference_Structure>
1

> <s_phase_Alignment_Method>
snapped core

> <s_phase_Alignment_Reason>


> <s_phase_Core_SMARTS>
a1aaaa(a12)aa(a(=A)[a]2)Aa3aaaaa3

> <s_f3d_frozen_atoms>
20 4 17 11 5 10 6 12 2 18 19 16 13 9 8 7 1 3 26 23 18 25 24 31 22 15

> <s_m_subgroup_title>
align_ligands_7680

> <s_m_subgroupid>
align_ligands_7680

> <b_m_subgroup_collapsed>
0

$$$$
