p38a_2j
                    3D
 Schrodinger Suite 2021-2.
 48 51  0  0  1  0            999 V2000
   32.1798   38.8651   26.9560 C   0  0  0  0  0  0
   33.4270   37.9826   27.1549 C   0  0  0  0  0  0
   32.9880   36.7490   25.1411 C   0  0  0  0  0  0
   31.7194   37.5714   24.8440 C   0  0  0  0  0  0
   38.3523   35.9571   16.5941 C   0  0  0  0  0  0
   33.2181   36.7018   26.5524 O   0  0  0  0  0  0
   34.5037   35.3125   21.0474 C   0  0  0  0  0  0
   38.0347   35.9039   17.9661 C   0  0  0  0  0  0
   33.5478   39.1840   23.6539 C   0  0  0  0  0  0
   31.8002   38.9740   25.4696 C   0  0  0  0  0  0
   34.9091   38.0884   21.6266 C   0  0  0  0  0  0
   35.7378   37.4057   20.6515 C   0  0  0  0  0  0
   35.9874   35.7390   16.0682 C   0  0  0  0  0  0
   35.6844   35.6404   17.4385 C   0  0  0  0  0  0
   33.9117   37.3527   22.2978 C   0  0  0  0  0  0
   35.1229   39.4201   22.0239 C   0  0  0  0  0  0
   35.5727   36.0920   20.4213 C   0  0  0  0  0  0
   36.7096   35.7291   18.3908 C   0  0  0  0  0  0
   32.5859   35.2499   22.5409 C   0  0  0  0  0  0
   38.9963   35.8783   18.9039 F   0  0  0  0  0  0
   36.5025   35.4107   19.7022 C   0  0  0  0  0  0
   34.4460   39.9633   23.0550 N   0  0  0  0  0  0
   34.3566   34.1126   20.7986 O   0  0  0  0  0  0
   33.6930   35.9852   21.9138 N   0  0  0  0  0  0
   33.2344   37.9366   23.3083 N   0  0  0  0  0  0
   32.8019   39.7685   24.7645 N   0  0  0  0  0  0
   31.3476   38.4360   27.5167 H   0  0  0  0  0  0
   32.3517   39.8564   27.3780 H   0  0  0  0  0  0
   34.3139   38.4596   26.7319 H   0  0  0  0  0  0
   33.6267   37.8477   28.2189 H   0  0  0  0  0  0
   32.8737   35.7315   24.7644 H   0  0  0  0  0  0
   33.8557   37.1721   24.6302 H   0  0  0  0  0  0
   31.5645   37.6440   23.7665 H   0  0  0  0  0  0
   30.8516   37.0420   25.2411 H   0  0  0  0  0  0
   39.3817   36.0309   16.2823 H   0  0  0  0  0  0
   30.8528   39.5036   25.3517 H   0  0  0  0  0  0
   36.5083   37.9898   20.1734 H   0  0  0  0  0  0
   35.2005   35.6509   15.3338 H   0  0  0  0  0  0
   34.6634   35.4773   17.7501 H   0  0  0  0  0  0
   35.8572   40.0380   21.5309 H   0  0  0  0  0  0
   31.7825   35.9154   22.8483 H   0  0  0  0  0  0
   32.1300   34.5217   21.8663 H   0  0  0  0  0  0
   32.9410   34.7224   23.4276 H   0  0  0  0  0  0
   32.9832   40.7460   25.0522 H   0  0  0  0  0  0
   37.4820   35.5345   20.1641 H   0  0  0  0  0  0
   36.2425   34.3524   19.6812 H   0  0  0  0  0  0
   37.3127   35.9421   15.6463 C   0  0  0  0  0  0
   37.5705   36.1909   14.3430 F   0  0  0  0  0  0
  1  2  1  0  0  0
  1 10  1  0  0  0
  1 27  1  0  0  0
  1 28  1  0  0  0
  2  6  1  0  0  0
  2 29  1  0  0  0
  2 30  1  0  0  0
  3  4  1  0  0  0
  3  6  1  0  0  0
  3 31  1  0  0  0
  3 32  1  0  0  0
  4 10  1  0  0  0
  4 33  1  0  0  0
  4 34  1  0  0  0
  5  8  1  0  0  0
  5 35  1  0  0  0
  5 47  2  0  0  0
  7 17  1  0  0  0
  7 23  2  0  0  0
  7 24  1  0  0  0
  8 18  2  0  0  0
  8 20  1  0  0  0
  9 22  1  0  0  0
  9 25  2  0  0  0
  9 26  1  0  0  0
 10 26  1  0  0  0
 10 36  1  0  0  0
 11 12  1  0  0  0
 11 15  2  0  0  0
 11 16  1  0  0  0
 12 17  2  0  0  0
 12 37  1  0  0  0
 13 14  2  0  0  0
 13 38  1  0  0  0
 13 47  1  0  0  0
 14 18  1  0  0  0
 14 39  1  0  0  0
 15 24  1  0  0  0
 15 25  1  0  0  0
 16 22  2  0  0  0
 16 40  1  0  0  0
 17 21  1  0  0  0
 18 21  1  0  0  0
 19 24  1  0  0  0
 19 41  1  0  0  0
 19 42  1  0  0  0
 19 43  1  0  0  0
 21 45  1  0  0  0
 21 46  1  0  0  0
 26 44  1  0  0  0
 47 48  1  0  0  0
M  END
> <s_m_entry_id>
312

> <s_m_entry_name>
p38_p38a_2j.1

> <r_user_dG.exp>
-10.081

> <r_m_Molecular_weight>
386.4048

> <s_m_Source_Path>
C:\Users\yujiethinkpad\Desktop\05A\p38

> <s_m_Source_File>
p38_p38a_2j.sdf

> <i_m_Source_File_Index>
1

> <s_m_job_name>
align_ligands_7680

> <i_phase_Input_Structure_Number>
20

> <i_phase_Structure_Number>
20

> <r_phase_Similarity_to_Reference>
0.825192788897574

> <i_phase_Reference_Structure>
1

> <s_phase_Alignment_Method>
snapped core

> <s_phase_Alignment_Reason>


> <s_phase_Core_SMARTS>
a1aaaa(a12)aa(a(=A)[a]2)Aa3aaaaa3

> <s_f3d_frozen_atoms>
25 9 22 16 11 15 12 17 7 23 24 21 18 14 13 47 5 8 40 37 23 45 46 39 38 48 35 20

> <s_m_subgroup_title>
align_ligands_7680

> <s_m_subgroupid>
align_ligands_7680

> <b_m_subgroup_collapsed>
0

$$$$
