p38a_2f
                    3D
 Schrodinger Suite 2021-2.
 46 49  0  0  1  0            999 V2000
   32.1797   38.8653   26.9560 C   0  0  0  0  0  0
   33.4269   37.9828   27.1550 C   0  0  0  0  0  0
   32.9880   36.7490   25.1412 C   0  0  0  0  0  0
   31.7194   37.5714   24.8440 C   0  0  0  0  0  0
   38.3523   35.9571   16.5941 C   0  0  0  0  0  0
   33.2180   36.7020   26.5526 O   0  0  0  0  0  0
   34.5037   35.3125   21.0474 C   0  0  0  0  0  0
   38.0347   35.9039   17.9661 C   0  0  0  0  0  0
   33.5478   39.1840   23.6539 C   0  0  0  0  0  0
   31.8002   38.9741   25.4695 C   0  0  0  0  0  0
   34.9091   38.0884   21.6266 C   0  0  0  0  0  0
   35.7378   37.4057   20.6515 C   0  0  0  0  0  0
   37.3127   35.9421   15.6463 C   0  0  0  0  0  0
   35.9874   35.7390   16.0682 C   0  0  0  0  0  0
   35.6844   35.6404   17.4385 C   0  0  0  0  0  0
   33.9117   37.3527   22.2978 C   0  0  0  0  0  0
   35.1229   39.4201   22.0239 C   0  0  0  0  0  0
   35.5727   36.0920   20.4213 C   0  0  0  0  0  0
   36.7096   35.7291   18.3908 C   0  0  0  0  0  0
   32.5859   35.2499   22.5409 C   0  0  0  0  0  0
   38.8171   36.0065   18.7035 H   0  0  0  0  0  0
   36.5025   35.4107   19.7022 O   0  0  0  0  0  0
   34.4460   39.9633   23.0550 N   0  0  0  0  0  0
   34.3566   34.1126   20.7986 O   0  0  0  0  0  0
   33.6930   35.9852   21.9138 N   0  0  0  0  0  0
   33.2344   37.9366   23.3083 N   0  0  0  0  0  0
   32.8018   39.7686   24.7645 N   0  0  0  0  0  0
   31.3476   38.4362   27.5167 H   0  0  0  0  0  0
   32.3516   39.8566   27.3780 H   0  0  0  0  0  0
   34.3138   38.4598   26.7320 H   0  0  0  0  0  0
   33.6266   37.8479   28.2190 H   0  0  0  0  0  0
   32.8737   35.7316   24.7646 H   0  0  0  0  0  0
   33.8557   37.1722   24.6303 H   0  0  0  0  0  0
   31.5645   37.6440   23.7666 H   0  0  0  0  0  0
   30.8516   37.0421   25.2411 H   0  0  0  0  0  0
   39.6252   36.0469   16.2084 F   0  0  0  0  0  0
   30.8528   39.5037   25.3516 H   0  0  0  0  0  0
   36.5083   37.9898   20.1734 H   0  0  0  0  0  0
   35.1946   35.6496   15.3401 H   0  0  0  0  0  0
   34.6633   35.4774   17.7502 H   0  0  0  0  0  0
   35.8572   40.0380   21.5309 H   0  0  0  0  0  0
   31.7825   35.9154   22.8483 H   0  0  0  0  0  0
   32.1300   34.5217   21.8663 H   0  0  0  0  0  0
   32.9410   34.7224   23.4276 H   0  0  0  0  0  0
   32.9832   40.7461   25.0521 H   0  0  0  0  0  0
   37.5271   36.0927   14.5985 H   0  0  0  0  0  0
  1  2  1  0  0  0
  1 10  1  0  0  0
  1 28  1  0  0  0
  1 29  1  0  0  0
  2  6  1  0  0  0
  2 30  1  0  0  0
  2 31  1  0  0  0
  3  4  1  0  0  0
  3  6  1  0  0  0
  3 32  1  0  0  0
  3 33  1  0  0  0
  4 10  1  0  0  0
  4 34  1  0  0  0
  4 35  1  0  0  0
  5  8  1  0  0  0
  5 13  2  0  0  0
  5 36  1  0  0  0
  7 18  1  0  0  0
  7 24  2  0  0  0
  7 25  1  0  0  0
  8 19  2  0  0  0
  8 21  1  0  0  0
  9 23  1  0  0  0
  9 26  2  0  0  0
  9 27  1  0  0  0
 10 27  1  0  0  0
 10 37  1  0  0  0
 11 12  1  0  0  0
 11 16  2  0  0  0
 11 17  1  0  0  0
 12 18  2  0  0  0
 12 38  1  0  0  0
 13 14  1  0  0  0
 13 46  1  0  0  0
 14 15  2  0  0  0
 14 39  1  0  0  0
 15 19  1  0  0  0
 15 40  1  0  0  0
 16 25  1  0  0  0
 16 26  1  0  0  0
 17 23  2  0  0  0
 17 41  1  0  0  0
 18 22  1  0  0  0
 19 22  1  0  0  0
 20 25  1  0  0  0
 20 42  1  0  0  0
 20 43  1  0  0  0
 20 44  1  0  0  0
 27 45  1  0  0  0
M  END
> <s_m_entry_id>
306

> <s_m_entry_name>
p38_p38a_2f.1

> <r_user_dG.exp>
-8.484

> <r_m_Molecular_weight>
370.38668

> <s_m_Source_Path>
C:\Users\yujiethinkpad\Desktop\05A\p38

> <s_m_Source_File>
p38_p38a_2f.sdf

> <i_m_Source_File_Index>
1

> <s_m_job_name>
align_ligands_7680

> <i_phase_Input_Structure_Number>
14

> <i_phase_Structure_Number>
14

> <r_phase_Similarity_to_Reference>
0.845922528542783

> <i_phase_Reference_Structure>
1

> <s_phase_Alignment_Method>
snapped core

> <s_phase_Alignment_Reason>


> <s_phase_Core_SMARTS>
a1aaaa(a12)aa(a(=A)[a]2)Aa3aaaaa3

> <s_f3d_frozen_atoms>
26 9 23 17 11 16 12 18 7 24 25 22 19 15 14 13 5 8 41 38 24 40 39 46 36 21

> <s_m_subgroup_title>
align_ligands_7680

> <s_m_subgroupid>
align_ligands_7680

> <b_m_subgroup_collapsed>
0

$$$$
