p38a_2aa
                    3D
 Schrodinger Suite 2021-2.
 43 45  0  0  1  0            999 V2000
   38.3523   35.9571   16.5941 C   0  0  0  0  0  0
   34.5037   35.3125   21.0474 C   0  0  0  0  0  0
   38.0347   35.9039   17.9661 C   0  0  0  0  0  0
   33.5478   39.1840   23.6539 C   0  0  0  0  0  0
   31.8001   38.9742   25.4694 C   0  0  0  0  0  0
   34.9091   38.0884   21.6266 C   0  0  0  0  0  0
   35.7378   37.4057   20.6515 C   0  0  0  0  0  0
   37.3127   35.9421   15.6463 C   0  0  0  0  0  0
   35.9874   35.7390   16.0682 C   0  0  0  0  0  0
   35.6844   35.6404   17.4385 C   0  0  0  0  0  0
   33.9117   37.3527   22.2978 C   0  0  0  0  0  0
   35.1229   39.4201   22.0239 C   0  0  0  0  0  0
   35.5727   36.0920   20.4213 C   0  0  0  0  0  0
   36.7096   35.7291   18.3908 C   0  0  0  0  0  0
   32.5859   35.2499   22.5409 C   0  0  0  0  0  0
   38.9963   35.8783   18.9039 F   0  0  0  0  0  0
   36.5025   35.4107   19.7022 O   0  0  0  0  0  0
   34.4460   39.9633   23.0550 N   0  0  0  0  0  0
   34.3566   34.1126   20.7986 O   0  0  0  0  0  0
   33.6930   35.9852   21.9138 N   0  0  0  0  0  0
   33.2344   37.9366   23.3083 N   0  0  0  0  0  0
   32.8017   39.7686   24.7644 N   0  0  0  0  0  0
   39.3818   36.0297   16.2822 H   0  0  0  0  0  0
   31.1987   37.9756   24.5253 C   0  0  0  0  0  0
   36.5083   37.9898   20.1734 H   0  0  0  0  0  0
   35.1946   35.6496   15.3401 H   0  0  0  0  0  0
   34.6633   35.4774   17.7502 H   0  0  0  0  0  0
   35.8572   40.0380   21.5309 H   0  0  0  0  0  0
   31.7825   35.9154   22.8483 H   0  0  0  0  0  0
   32.1300   34.5217   21.8663 H   0  0  0  0  0  0
   32.9410   34.7224   23.4276 H   0  0  0  0  0  0
   32.9830   40.7461   25.0519 H   0  0  0  0  0  0
   37.5705   36.1909   14.3430 F   0  0  0  0  0  0
   32.4487   38.2529   26.6136 C   0  0  0  0  0  0
   31.5019   37.5020   27.2800 O   0  0  0  0  0  0
   30.5764   37.5599   26.9056 H   0  0  0  0  0  0
   33.2308   37.5963   26.2326 H   0  0  0  0  0  0
   32.8856   38.9785   27.2996 H   0  0  0  0  0  0
   30.6020   38.6392   23.4727 O   0  0  0  0  0  0
   31.9809   37.3190   24.1443 H   0  0  0  0  0  0
   30.4509   37.3825   25.0517 H   0  0  0  0  0  0
   30.6661   39.6364   23.5110 H   0  0  0  0  0  0
   31.0179   39.6308   25.8505 H   0  0  0  0  0  0
  1  3  1  0  0  0
  1  8  2  0  0  0
  1 23  1  0  0  0
  2 13  1  0  0  0
  2 19  2  0  0  0
  2 20  1  0  0  0
  3 14  2  0  0  0
  3 16  1  0  0  0
  4 18  1  0  0  0
  4 21  2  0  0  0
  4 22  1  0  0  0
  5 22  1  0  0  0
  5 24  1  0  0  0
  5 34  1  0  0  0
  5 43  1  0  0  0
  6  7  1  0  0  0
  6 11  2  0  0  0
  6 12  1  0  0  0
  7 13  2  0  0  0
  7 25  1  0  0  0
  8  9  1  0  0  0
  8 33  1  0  0  0
  9 10  2  0  0  0
  9 26  1  0  0  0
 10 14  1  0  0  0
 10 27  1  0  0  0
 11 20  1  0  0  0
 11 21  1  0  0  0
 12 18  2  0  0  0
 12 28  1  0  0  0
 13 17  1  0  0  0
 14 17  1  0  0  0
 15 20  1  0  0  0
 15 29  1  0  0  0
 15 30  1  0  0  0
 15 31  1  0  0  0
 22 32  1  0  0  0
 24 39  1  0  0  0
 24 40  1  0  0  0
 24 41  1  0  0  0
 34 35  1  0  0  0
 34 37  1  0  0  0
 34 38  1  0  0  0
 35 36  1  0  0  0
 39 42  1  0  0  0
M  END
> <s_m_entry_id>
301

> <s_m_entry_name>
p38_p38a_2aa.1

> <r_user_dG.exp>
-9.268

> <r_m_Molecular_weight>
378.33827

> <s_m_Source_Path>
C:\Users\yujiethinkpad\Desktop\05A\p38

> <s_m_Source_File>
p38_p38a_2aa.sdf

> <i_m_Source_File_Index>
1

> <s_m_job_name>
align_ligands_7680

> <i_phase_Input_Structure_Number>
9

> <i_phase_Structure_Number>
9

> <r_phase_Similarity_to_Reference>
0.928957907792731

> <i_phase_Reference_Structure>
1

> <s_phase_Alignment_Method>
snapped core

> <s_phase_Alignment_Reason>


> <s_phase_Core_SMARTS>
a1aaaa(a12)aa(a(=A)[a]2)Aa3aaaaa3

> <s_f3d_frozen_atoms>
21 4 18 12 6 11 7 13 2 19 20 17 14 10 9 8 1 3 28 25 19 27 26 33 23 16

> <s_m_subgroup_title>
align_ligands_7680

> <s_m_subgroupid>
align_ligands_7680

> <b_m_subgroup_collapsed>
0

$$$$
