p38a_3flq
                    3D
 Schrodinger Suite 2021-2.
 47 49  0  0  1  0            999 V2000
   33.5478   39.1840   23.6539 C   0  0  0  0  0  0
   34.9091   38.0884   21.6266 C   0  0  0  0  0  0
   35.7378   37.4057   20.6515 C   0  0  0  0  0  0
   33.9117   37.3527   22.2978 C   0  0  0  0  0  0
   35.5727   36.0920   20.4213 C   0  0  0  0  0  0
   31.8001   38.9742   25.4694 C   0  0  1  0  0  0
   31.1987   37.9756   24.5253 C   0  0  0  0  0  0
   34.8898   39.0090   27.7329 C   0  0  0  0  0  0
   33.6930   35.9852   21.9138 N   0  0  0  0  0  0
   32.4487   38.2529   26.6136 C   0  0  0  0  0  0
   37.5705   36.1909   14.3430 F   0  0  0  0  0  0
   37.3127   35.9421   15.6463 C   0  0  0  0  0  0
   35.9874   35.7390   16.0682 C   0  0  0  0  0  0
   35.6844   35.6404   17.4385 C   0  0  0  0  0  0
   38.3523   35.9571   16.5941 C   0  0  0  0  0  0
   38.0347   35.9039   17.9661 C   0  0  0  0  0  0
   38.9963   35.8783   18.9039 F   0  0  0  0  0  0
   36.7096   35.7291   18.3908 C   0  0  0  0  0  0
   36.5025   35.4107   19.7022 O   0  0  0  0  0  0
   34.5037   35.3125   21.0474 C   0  0  0  0  0  0
   34.3566   34.1126   20.7986 O   0  0  0  0  0  0
   35.1229   39.4201   22.0239 C   0  0  0  0  0  0
   34.4460   39.9633   23.0550 N   0  0  0  0  0  0
   33.2344   37.9366   23.3083 N   0  0  0  0  0  0
   32.5859   35.2499   22.5409 C   0  0  0  0  0  0
   32.8017   39.7686   24.7644 N   0  0  0  0  0  0
   33.1622   39.4378   27.7339 S   0  0  0  0  0  0
   33.0334   40.7636   27.1194 O   0  0  0  0  0  0
   32.6354   39.1555   29.0736 O   0  0  0  0  0  0
   36.5002   37.9951   20.1690 H   0  0  0  0  0  0
   31.0179   39.6308   25.8504 H   0  0  0  0  0  0
   30.4509   37.3825   25.0517 H   0  0  0  0  0  0
   30.7274   38.4998   23.6939 H   0  0  0  0  0  0
   31.9809   37.3190   24.1443 H   0  0  0  0  0  0
   35.4317   39.6822   28.3972 H   0  0  0  0  0  0
   35.0096   37.9825   28.0793 H   0  0  0  0  0  0
   35.2861   39.0997   26.7216 H   0  0  0  0  0  0
   31.7008   37.6598   27.1400 H   0  0  0  0  0  0
   33.2308   37.5963   26.2326 H   0  0  0  0  0  0
   35.1927   35.6664   15.3409 H   0  0  0  0  0  0
   34.6601   35.5018   17.7524 H   0  0  0  0  0  0
   39.3778   36.0414   16.2693 H   0  0  0  0  0  0
   35.8503   40.0429   21.5264 H   0  0  0  0  0  0
   32.1300   34.5217   21.8663 H   0  0  0  0  0  0
   32.9410   34.7224   23.4276 H   0  0  0  0  0  0
   31.7825   35.9154   22.8483 H   0  0  0  0  0  0
   32.9830   40.7461   25.0519 H   0  0  0  0  0  0
  1 23  1  0  0  0
  1 24  2  0  0  0
  1 26  1  0  0  0
  2  3  1  0  0  0
  2  4  2  0  0  0
  2 22  1  0  0  0
  3  5  2  0  0  0
  3 30  1  0  0  0
  4  9  1  0  0  0
  4 24  1  0  0  0
  5 19  1  0  0  0
  5 20  1  0  0  0
  6  7  1  0  0  0
  6 10  1  0  0  0
  6 26  1  0  0  0
  6 31  1  0  0  0
  7 32  1  0  0  0
  7 33  1  0  0  0
  7 34  1  0  0  0
  8 27  1  0  0  0
  8 35  1  0  0  0
  8 36  1  0  0  0
  8 37  1  0  0  0
  9 20  1  0  0  0
  9 25  1  0  0  0
 10 27  1  0  0  0
 10 38  1  0  0  0
 10 39  1  0  0  0
 11 12  1  0  0  0
 12 13  1  0  0  0
 12 15  2  0  0  0
 13 14  2  0  0  0
 13 40  1  0  0  0
 14 18  1  0  0  0
 14 41  1  0  0  0
 15 16  1  0  0  0
 15 42  1  0  0  0
 16 17  1  0  0  0
 16 18  2  0  0  0
 18 19  1  0  0  0
 20 21  2  0  0  0
 22 23  2  0  0  0
 22 43  1  0  0  0
 25 44  1  0  0  0
 25 45  1  0  0  0
 25 46  1  0  0  0
 26 47  1  0  0  0
 27 28  2  0  0  0
 27 29  2  0  0  0
M  END
> <s_m_entry_id>
296

> <s_m_entry_name>
p38_p38a_3flq.1

> <r_user_dG.exp>
-9.93099

> <r_m_Molecular_weight>
424.42936

> <s_m_Source_Path>
C:\Users\yujiethinkpad\Desktop\05A\p38

> <s_m_Source_File>
p38_p38a_3flq.sdf

> <i_m_Source_File_Index>
1

> <s_m_job_name>
align_ligands_7680

> <i_phase_Input_Structure_Number>
4

> <i_phase_Structure_Number>
4

> <r_phase_Similarity_to_Reference>
0.867032229813842

> <i_phase_Reference_Structure>
1

> <s_phase_Alignment_Method>
snapped core

> <s_phase_Alignment_Reason>


> <s_phase_Core_SMARTS>
a1aaaa(a12)aa(a(=A)[a]2)Aa3aaaaa3

> <s_f3d_frozen_atoms>
24 1 23 22 2 4 3 5 20 21 9 19 18 14 13 12 15 16 43 30 21 41 40 11 42 17

> <s_m_subgroup_title>
align_ligands_7680

> <s_m_subgroupid>
align_ligands_7680

> <b_m_subgroup_collapsed>
0

$$$$
