p38a_3fmk
                    3D
 Schrodinger Suite 2021-2.
 46 49  0  0  1  0            999 V2000
   38.0347   35.9039   17.9661 C   0  0  0  0  0  0
   38.3523   35.9571   16.5941 C   0  0  0  0  0  0
   32.5859   35.2499   22.5409 C   0  0  0  0  0  0
   35.9874   35.7390   16.0682 C   0  0  0  0  0  0
   35.1229   39.4201   22.0239 C   0  0  0  0  0  0
   31.7693   38.9890   25.4411 C   0  0  1  0  0  0
   32.3813   38.2281   26.5797 C   0  0  0  0  0  0
   33.5478   39.1840   23.6539 C   0  0  0  0  0  0
   34.5037   35.3125   21.0474 C   0  0  0  0  0  0
   35.5727   36.0920   20.4213 C   0  0  0  0  0  0
   35.7378   37.4057   20.6515 C   0  0  0  0  0  0
   36.7096   35.7291   18.3908 C   0  0  0  0  0  0
   35.6844   35.6404   17.4385 C   0  0  0  0  0  0
   34.9091   38.0884   21.6266 C   0  0  0  0  0  0
   33.9117   37.3527   22.2978 C   0  0  0  0  0  0
   32.8027   39.7682   24.7653 N   0  0  0  0  0  0
   37.3127   35.9421   15.6463 C   0  0  0  0  0  0
   37.5705   36.1909   14.3430 F   0  0  0  0  0  0
   38.9963   35.8783   18.9039 F   0  0  0  0  0  0
   36.5025   35.4107   19.7022 O   0  0  0  0  0  0
   34.3566   34.1126   20.7986 O   0  0  0  0  0  0
   33.6930   35.9852   21.9138 N   0  0  0  0  0  0
   33.2344   37.9366   23.3083 N   0  0  0  0  0  0
   34.4460   39.9633   23.0550 N   0  0  0  0  0  0
   31.1538   38.0260   24.4696 C   0  0  0  0  0  0
   32.9804   39.1655   27.5252 N   0  0  3  0  0  0
   34.2875   39.1739   27.8530 N   0  0  0  0  0  0
   34.3407   40.1682   28.7131 C   0  0  0  0  0  0
   33.1859   40.7672   28.9400 N   0  0  0  0  0  0
   32.2673   40.1061   28.1515 N   0  0  0  0  0  0
   39.3825   36.0321   16.2839 H   0  0  0  0  0  0
   31.7825   35.9154   22.8483 H   0  0  0  0  0  0
   32.1300   34.5217   21.8663 H   0  0  0  0  0  0
   32.9410   34.7224   23.4276 H   0  0  0  0  0  0
   35.2017   35.6589   15.3337 H   0  0  0  0  0  0
   35.8564   40.0385   21.5302 H   0  0  0  0  0  0
   31.0005   39.6601   25.8240 H   0  0  0  0  0  0
   31.6098   37.6464   27.0842 H   0  0  0  0  0  0
   33.1501   37.5571   26.1967 H   0  0  0  0  0  0
   36.5093   37.9780   20.1626 H   0  0  0  0  0  0
   34.6643   35.4950   17.7501 H   0  0  0  0  0  0
   33.0070   40.7347   25.0740 H   0  0  0  0  0  0
   30.3823   37.4443   24.9742 H   0  0  0  0  0  0
   30.7091   38.5789   23.6422 H   0  0  0  0  0  0
   31.9227   37.3549   24.0867 H   0  0  0  0  0  0
   35.2602   40.4764   29.2013 H   0  0  0  0  0  0
  1  2  1  0  0  0
  1 12  2  0  0  0
  1 19  1  0  0  0
  2 17  2  0  0  0
  2 31  1  0  0  0
  3 22  1  0  0  0
  3 32  1  0  0  0
  3 33  1  0  0  0
  3 34  1  0  0  0
  4 13  2  0  0  0
  4 17  1  0  0  0
  4 35  1  0  0  0
  5 14  1  0  0  0
  5 24  2  0  0  0
  5 36  1  0  0  0
  6  7  1  0  0  0
  6 16  1  0  0  0
  6 25  1  0  0  0
  6 37  1  0  0  0
  7 26  1  0  0  0
  7 38  1  0  0  0
  7 39  1  0  0  0
  8 16  1  0  0  0
  8 23  2  0  0  0
  8 24  1  0  0  0
  9 10  1  0  0  0
  9 21  2  0  0  0
  9 22  1  0  0  0
 10 11  2  0  0  0
 10 20  1  0  0  0
 11 14  1  0  0  0
 11 40  1  0  0  0
 12 13  1  0  0  0
 12 20  1  0  0  0
 13 41  1  0  0  0
 14 15  2  0  0  0
 15 22  1  0  0  0
 15 23  1  0  0  0
 16 42  1  0  0  0
 17 18  1  0  0  0
 25 43  1  0  0  0
 25 44  1  0  0  0
 25 45  1  0  0  0
 26 27  1  0  0  0
 26 30  1  0  0  0
 27 28  2  0  0  0
 28 29  1  0  0  0
 28 46  1  0  0  0
 29 30  2  0  0  0
M  END
> <s_m_entry_id>
300

> <s_m_entry_name>
p38_p38a_3fmk.1

> <r_user_dG.exp>
-11.8325

> <r_m_Molecular_weight>
414.37742

> <s_m_Source_Path>
C:\Users\yujiethinkpad\Desktop\05A\p38

> <s_m_Source_File>
p38_p38a_3fmk.sdf

> <i_m_Source_File_Index>
1

> <s_m_job_name>
align_ligands_7680

> <i_phase_Input_Structure_Number>
8

> <i_phase_Structure_Number>
8

> <r_phase_Similarity_to_Reference>
0.832979746355125

> <i_phase_Reference_Structure>
1

> <s_phase_Alignment_Method>
snapped core

> <s_phase_Alignment_Reason>


> <s_phase_Core_SMARTS>
a1aaaa(a12)aa(a(=A)[a]2)Aa3aaaaa3

> <s_f3d_frozen_atoms>
23 8 24 5 14 15 11 10 9 21 22 20 12 13 4 17 2 1 36 40 21 41 35 18 31 19

> <s_m_subgroup_title>
align_ligands_7680

> <s_m_subgroupid>
align_ligands_7680

> <b_m_subgroup_collapsed>
0

$$$$
