p38a_3fmh
                    3D
 Schrodinger Suite 2021-2.
 46 49  0  0  1  0            999 V2000
   37.5705   36.1909   14.3430 F   0  0  0  0  0  0
   37.3127   35.9421   15.6463 C   0  0  0  0  0  0
   35.9874   35.7390   16.0682 C   0  0  0  0  0  0
   35.6844   35.6404   17.4385 C   0  0  0  0  0  0
   38.3523   35.9571   16.5941 C   0  0  0  0  0  0
   38.0347   35.9039   17.9661 C   0  0  0  0  0  0
   38.9963   35.8783   18.9039 F   0  0  0  0  0  0
   36.7096   35.7291   18.3908 C   0  0  0  0  0  0
   36.5025   35.4107   19.7022 O   0  0  0  0  0  0
   35.5727   36.0920   20.4213 C   0  0  0  0  0  0
   34.5037   35.3125   21.0474 C   0  0  0  0  0  0
   34.3566   34.1126   20.7986 O   0  0  0  0  0  0
   33.6930   35.9852   21.9138 N   0  0  0  0  0  0
   32.5859   35.2499   22.5409 C   0  0  0  0  0  0
   33.9117   37.3527   22.2978 C   0  0  0  0  0  0
   33.2344   37.9366   23.3083 N   0  0  0  0  0  0
   35.7378   37.4057   20.6515 C   0  0  0  0  0  0
   34.9091   38.0884   21.6266 C   0  0  0  0  0  0
   35.1229   39.4201   22.0239 C   0  0  0  0  0  0
   34.4460   39.9633   23.0550 N   0  0  0  0  0  0
   33.5478   39.1840   23.6539 C   0  0  0  0  0  0
   32.8017   39.7686   24.7644 N   0  0  0  0  0  0
   31.7675   38.9898   25.4393 C   0  0  2  0  0  0
   32.3781   38.2291   26.5788 C   0  0  0  0  0  0
   31.1527   38.0267   24.4675 C   0  0  0  0  0  0
   29.7236   38.3009   24.3487 N   0  0  3  0  0  0
   28.8566   38.2436   25.3787 N   0  0  0  0  0  0
   27.7228   38.5612   24.7914 C   0  0  0  0  0  0
   27.8187   38.8071   23.4976 N   0  0  0  0  0  0
   29.1522   38.6365   23.1884 N   0  0  0  0  0  0
   35.1953   35.6540   15.3403 H   0  0  0  0  0  0
   34.6653   35.4890   17.7552 H   0  0  0  0  0  0
   39.3767   36.0381   16.2669 H   0  0  0  0  0  0
   31.7825   35.9154   22.8483 H   0  0  0  0  0  0
   32.1300   34.5217   21.8663 H   0  0  0  0  0  0
   32.9410   34.7224   23.4276 H   0  0  0  0  0  0
   36.4999   37.9862   20.1558 H   0  0  0  0  0  0
   35.8550   40.0397   21.5289 H   0  0  0  0  0  0
   33.0060   40.7350   25.0733 H   0  0  0  0  0  0
   30.9984   39.6611   25.8214 H   0  0  0  0  0  0
   31.6060   37.6476   27.0827 H   0  0  0  0  0  0
   33.1472   37.5578   26.1967 H   0  0  0  0  0  0
   32.8249   38.9289   27.2849 H   0  0  0  0  0  0
   31.6270   38.1416   23.4929 H   0  0  0  0  0  0
   31.2986   37.0073   24.8247 H   0  0  0  0  0  0
   26.7788   38.6182   25.3247 H   0  0  0  0  0  0
  1  2  1  0  0  0
  2  3  1  0  0  0
  2  5  2  0  0  0
  3  4  2  0  0  0
  3 31  1  0  0  0
  4  8  1  0  0  0
  4 32  1  0  0  0
  5  6  1  0  0  0
  5 33  1  0  0  0
  6  7  1  0  0  0
  6  8  2  0  0  0
  8  9  1  0  0  0
  9 10  1  0  0  0
 10 11  1  0  0  0
 10 17  2  0  0  0
 11 12  2  0  0  0
 11 13  1  0  0  0
 13 14  1  0  0  0
 13 15  1  0  0  0
 14 34  1  0  0  0
 14 35  1  0  0  0
 14 36  1  0  0  0
 15 16  1  0  0  0
 15 18  2  0  0  0
 16 21  2  0  0  0
 17 18  1  0  0  0
 17 37  1  0  0  0
 18 19  1  0  0  0
 19 20  2  0  0  0
 19 38  1  0  0  0
 20 21  1  0  0  0
 21 22  1  0  0  0
 22 23  1  0  0  0
 22 39  1  0  0  0
 23 24  1  0  0  0
 23 25  1  0  0  0
 23 40  1  0  0  0
 24 41  1  0  0  0
 24 42  1  0  0  0
 24 43  1  0  0  0
 25 26  1  0  0  0
 25 44  1  0  0  0
 25 45  1  0  0  0
 26 27  1  0  0  0
 26 30  1  0  0  0
 27 28  2  0  0  0
 28 29  1  0  0  0
 28 46  1  0  0  0
 29 30  2  0  0  0
M  END
> <s_m_entry_id>
299

> <s_m_entry_name>
p38_p38a_3fmh.1

> <r_user_dG.exp>
-10.8254

> <r_m_Molecular_weight>
414.37742

> <s_m_Source_Path>
C:\Users\yujiethinkpad\Desktop\05A\p38

> <s_m_Source_File>
p38_p38a_3fmh.sdf

> <i_m_Source_File_Index>
1

> <s_m_job_name>
align_ligands_7680

> <i_phase_Input_Structure_Number>
7

> <i_phase_Structure_Number>
7

> <r_phase_Similarity_to_Reference>
0.833888080078043

> <i_phase_Reference_Structure>
1

> <s_phase_Alignment_Method>
snapped core

> <s_phase_Alignment_Reason>


> <s_phase_Core_SMARTS>
a1aaaa(a12)aa(a(=A)[a]2)Aa3aaaaa3

> <s_f3d_frozen_atoms>
16 21 20 19 18 15 17 10 11 12 13 9 8 4 3 2 5 6 38 37 12 32 31 1 33 7

> <s_m_subgroup_title>
align_ligands_7680

> <s_m_subgroupid>
align_ligands_7680

> <b_m_subgroup_collapsed>
0

$$$$
