p38a_3fln
                    3D
 Schrodinger Suite 2021-2.
 46 49  0  0  1  0            999 V2000
   32.1795   38.8655   26.9559 C   0  0  0  0  0  0
   33.4268   37.9831   27.1551 C   0  0  0  0  0  0
   32.9880   36.7491   25.1413 C   0  0  0  0  0  0
   31.7194   37.5714   24.8440 C   0  0  0  0  0  0
   38.3523   35.9571   16.5941 C   0  0  0  0  0  0
   33.2180   36.7022   26.5527 O   0  0  0  0  0  0
   34.5037   35.3125   21.0474 C   0  0  0  0  0  0
   38.0347   35.9039   17.9661 C   0  0  0  0  0  0
   33.5478   39.1840   23.6539 C   0  0  0  0  0  0
   31.8001   38.9742   25.4694 C   0  0  0  0  0  0
   34.9091   38.0884   21.6266 C   0  0  0  0  0  0
   35.7378   37.4057   20.6515 C   0  0  0  0  0  0
   37.3127   35.9421   15.6463 C   0  0  0  0  0  0
   35.9874   35.7390   16.0682 C   0  0  0  0  0  0
   35.6844   35.6404   17.4385 C   0  0  0  0  0  0
   33.9117   37.3527   22.2978 C   0  0  0  0  0  0
   35.1229   39.4201   22.0239 C   0  0  0  0  0  0
   35.5727   36.0920   20.4213 C   0  0  0  0  0  0
   36.7096   35.7291   18.3908 C   0  0  0  0  0  0
   32.5859   35.2499   22.5409 C   0  0  0  0  0  0
   38.9963   35.8783   18.9039 F   0  0  0  0  0  0
   37.5705   36.1909   14.3430 F   0  0  0  0  0  0
   36.5025   35.4107   19.7022 O   0  0  0  0  0  0
   34.4460   39.9633   23.0550 N   0  0  0  0  0  0
   34.3566   34.1126   20.7986 O   0  0  0  0  0  0
   33.6930   35.9852   21.9138 N   0  0  0  0  0  0
   33.2344   37.9366   23.3083 N   0  0  0  0  0  0
   32.8017   39.7686   24.7644 N   0  0  0  0  0  0
   31.3473   38.4363   27.5166 H   0  0  0  0  0  0
   32.3513   39.8568   27.3779 H   0  0  0  0  0  0
   34.3136   38.4600   26.7321 H   0  0  0  0  0  0
   33.6264   37.8482   28.2191 H   0  0  0  0  0  0
   32.8738   35.7316   24.7648 H   0  0  0  0  0  0
   33.8558   37.1723   24.6305 H   0  0  0  0  0  0
   31.5646   37.6439   23.7665 H   0  0  0  0  0  0
   30.8516   37.0420   25.2411 H   0  0  0  0  0  0
   39.3818   36.0297   16.2822 H   0  0  0  0  0  0
   30.8526   39.5037   25.3514 H   0  0  0  0  0  0
   36.5083   37.9898   20.1734 H   0  0  0  0  0  0
   35.1963   35.6498   15.3418 H   0  0  0  0  0  0
   34.6675   35.4780   17.7489 H   0  0  0  0  0  0
   35.8572   40.0380   21.5309 H   0  0  0  0  0  0
   31.7825   35.9154   22.8483 H   0  0  0  0  0  0
   32.1300   34.5217   21.8663 H   0  0  0  0  0  0
   32.9410   34.7224   23.4276 H   0  0  0  0  0  0
   32.9830   40.7461   25.0519 H   0  0  0  0  0  0
  1  2  1  0  0  0
  1 10  1  0  0  0
  1 29  1  0  0  0
  1 30  1  0  0  0
  2  6  1  0  0  0
  2 31  1  0  0  0
  2 32  1  0  0  0
  3  4  1  0  0  0
  3  6  1  0  0  0
  3 33  1  0  0  0
  3 34  1  0  0  0
  4 10  1  0  0  0
  4 35  1  0  0  0
  4 36  1  0  0  0
  5  8  1  0  0  0
  5 13  2  0  0  0
  5 37  1  0  0  0
  7 18  1  0  0  0
  7 25  2  0  0  0
  7 26  1  0  0  0
  8 19  2  0  0  0
  8 21  1  0  0  0
  9 24  1  0  0  0
  9 27  2  0  0  0
  9 28  1  0  0  0
 10 28  1  0  0  0
 10 38  1  0  0  0
 11 12  1  0  0  0
 11 16  2  0  0  0
 11 17  1  0  0  0
 12 18  2  0  0  0
 12 39  1  0  0  0
 13 14  1  0  0  0
 13 22  1  0  0  0
 14 15  2  0  0  0
 14 40  1  0  0  0
 15 19  1  0  0  0
 15 41  1  0  0  0
 16 26  1  0  0  0
 16 27  1  0  0  0
 17 24  2  0  0  0
 17 42  1  0  0  0
 18 23  1  0  0  0
 19 23  1  0  0  0
 20 26  1  0  0  0
 20 43  1  0  0  0
 20 44  1  0  0  0
 20 45  1  0  0  0
 28 46  1  0  0  0
M  END
> <s_m_entry_id>
295

> <s_m_entry_name>
p38_p38a_3fln.1

> <r_user_dG.exp>
-10.8817

> <r_m_Molecular_weight>
388.37711

> <s_m_Source_Path>
C:\Users\yujiethinkpad\Desktop\05A\p38

> <s_m_Source_File>
p38_p38a_3fln.sdf

> <i_m_Source_File_Index>
1

> <s_m_job_name>
align_ligands_7680

> <i_phase_Input_Structure_Number>
3

> <i_phase_Structure_Number>
3

> <r_phase_Similarity_to_Reference>
0.872592772865536

> <i_phase_Reference_Structure>
1

> <s_phase_Alignment_Method>
snapped core

> <s_phase_Alignment_Reason>


> <s_phase_Core_SMARTS>
a1aaaa(a12)aa(a(=A)[a]2)Aa3aaaaa3

> <s_f3d_frozen_atoms>
27 9 24 17 11 16 12 18 7 25 26 23 19 15 14 13 5 8 42 39 25 41 40 22 37 21

> <s_m_subgroup_title>
align_ligands_7680

> <s_m_subgroupid>
align_ligands_7680

> <b_m_subgroup_collapsed>
0

$$$$
