CAT-24
                    3D
 Schrodinger Suite 2021-2.
 47 50  0  0  1  0            999 V2000
   19.4505    6.4343   -0.5346 C   0  0  0  0  0  0
   18.2858    5.5443   -0.8532 C   0  0  0  0  0  0
   17.3391    4.8175   -1.1110 C   0  0  0  0  0  0
   16.1786    3.9217   -1.4285 C   0  0  0  0  0  0
   14.8768    4.4090   -1.3265 C   0  0  0  0  0  0
   13.8361    3.5444   -1.6892 N   0  0  0  0  0  0
   14.0307    2.2696   -2.0777 C   0  0  0  0  0  0
   15.2943    1.8190   -2.1558 C   0  0  0  0  0  0
   15.4789    0.4180   -2.5002 C   0  0  0  0  0  0
   16.0074    0.0555   -3.7416 C   0  0  0  0  0  0
   16.1081   -1.2923   -4.1022 C   0  0  0  0  0  0
   15.6771   -2.2934   -3.2259 C   0  0  0  0  0  0
   15.1568   -1.9529   -1.9705 C   0  0  0  0  0  0
   14.5743   -3.0162   -1.0535 C   0  0  1  0  0  0
   14.7716   -4.4166   -1.5534 C   0  0  0  0  0  0
   16.0163   -5.1700   -1.1422 C   0  0  0  0  0  0
   14.6720   -5.5628   -0.5724 C   0  0  0  0  0  0
   15.0794   -2.8321    0.2653 N   0  3  0  0  0  0
   14.1019   -2.6231    1.0447 C   0  0  0  0  0  0
   14.1861   -2.4823    2.3656 N   0  0  0  0  0  0
   12.8825   -2.5349    0.4671 N   0  0  0  0  0  0
   11.6744   -2.0785    1.1315 C   0  0  0  0  0  0
   13.0870   -2.7033   -0.8181 C   0  0  0  0  0  0
   12.2401   -2.6018   -1.7019 O   0  0  0  0  0  0
   15.0967   -0.5901   -1.6066 C   0  0  0  0  0  0
   16.3883    2.6359   -1.9126 C   0  0  0  0  0  0
   19.2767    7.4247   -0.9551 H   0  0  0  0  0  0
   19.5623    6.5132    0.5468 H   0  0  0  0  0  0
   20.3589    6.0116   -0.9639 H   0  0  0  0  0  0
   14.6852    5.4184   -0.9915 H   0  0  0  0  0  0
   13.1197    1.7178   -2.2500 H   0  0  0  0  0  0
   16.3210    0.8038   -4.4514 H   0  0  0  0  0  0
   16.4937   -1.5490   -5.0783 H   0  0  0  0  0  0
   15.7622   -3.2984   -3.5935 H   0  0  0  0  0  0
   14.3828   -4.5528   -2.5648 H   0  0  0  0  0  0
   16.4957   -5.8317   -1.8667 H   0  0  0  0  0  0
   16.7409   -4.6759   -0.4913 H   0  0  0  0  0  0
   14.4589   -5.3427    0.4758 H   0  0  0  0  0  0
   14.2137   -6.4985   -0.8996 H   0  0  0  0  0  0
   16.0768   -2.8575    0.4831 H   0  0  0  0  0  0
   15.1170   -2.5502    2.7817 H   0  0  0  0  0  0
   10.7876   -2.3848    0.5758 H   0  0  0  0  0  0
   11.5731   -2.4718    2.1432 H   0  0  0  0  0  0
   11.6843   -0.9920    1.1642 H   0  0  0  0  0  0
   14.6843   -0.2918   -0.6541 H   0  0  0  0  0  0
   17.3913    2.2899   -2.0947 H   0  0  0  0  0  0
   13.4246   -2.2817    3.0007 H   0  0  0  0  0  0
  1  2  1  0  0  0
  1 27  1  0  0  0
  1 28  1  0  0  0
  1 29  1  0  0  0
  2  3  3  0  0  0
  3  4  1  0  0  0
  4  5  2  0  0  0
  4 26  1  0  0  0
  5  6  1  0  0  0
  5 30  1  0  0  0
  6  7  2  0  0  0
  7  8  1  0  0  0
  7 31  1  0  0  0
  8  9  1  0  0  0
  8 26  2  0  0  0
  9 10  2  0  0  0
  9 25  1  0  0  0
 10 11  1  0  0  0
 10 32  1  0  0  0
 11 12  2  0  0  0
 11 33  1  0  0  0
 12 13  1  0  0  0
 12 34  1  0  0  0
 13 14  1  0  0  0
 13 25  2  0  0  0
 14 15  1  0  0  0
 14 18  1  0  0  0
 14 23  1  0  0  0
 15 16  1  0  0  0
 15 17  1  0  0  0
 15 35  1  0  0  0
 16 17  1  0  0  0
 16 36  1  0  0  0
 16 37  1  0  0  0
 17 38  1  0  0  0
 17 39  1  0  0  0
 18 19  2  0  0  0
 18 40  1  0  0  0
 19 20  1  0  0  0
 19 21  1  0  0  0
 20 41  1  0  0  0
 20 47  1  0  0  0
 21 22  1  0  0  0
 21 23  1  0  0  0
 22 42  1  0  0  0
 22 43  1  0  0  0
 22 44  1  0  0  0
 23 24  2  0  0  0
 25 45  1  0  0  0
 26 46  1  0  0  0
M  CHG  1  18   1
M  END
> <s_m_entry_id>
1065

> <s_m_entry_name>
Bace_CAT-24.1

> <s_m_Source_Path>
C:\Users\yujiethinkpad\Desktop\05A\BACE

> <s_m_Source_File>
Bace_CAT-24.sdf

> <i_m_Source_File_Index>
1

> <s_m_job_name>
align_ligands_3

> <r_user_dG.exp>
-11.35

> <r_m_Molecular_weight>
345.42772

> <i_phase_Input_Structure_Number>
7

> <i_phase_Structure_Number>
7

> <i_phase_Reference_Structure>
36

> <s_phase_Core_SMARTS>
A=A1AA=[A]A1a2aa(aaa2)-a3aaaaa3

> <s_f3d_frozen_atoms>
24 23 21 19 18 14 13 25 9 10 11 12 8 26 4 5 6 7 24 40 45 32 33 34 46 30 31

> <r_phase_Similarity_to_Reference>
0.824813458036151

> <s_phase_Alignment_Method>
snapped core

> <s_phase_Alignment_Reason>


> <s_m_subgroup_title>
align_ligands_3

> <s_m_subgroupid>
align_ligands_3

> <b_m_subgroup_collapsed>
0

$$$$
