CAT-13i
                    3D
 Schrodinger Suite 2021-2.
 46 49  0  0  1  0            999 V2000
   11.6744   -2.0785    1.1315 C   0  0  0  0  0  0
   12.8825   -2.5349    0.4671 N   0  0  0  0  0  0
   14.1019   -2.6231    1.0447 C   0  0  0  0  0  0
   14.1861   -2.4823    2.3656 N   0  0  0  0  0  0
   15.0794   -2.8321    0.2653 N   0  3  0  0  0  0
   14.5743   -3.0162   -1.0535 C   0  0  2  0  0  0
   14.7715   -4.4167   -1.5531 C   0  0  0  0  0  0
   16.2361   -4.7400   -1.5699 C   0  0  0  0  0  0
   16.7551   -5.8237   -0.6523 C   0  0  0  0  0  0
   16.6847   -6.0652   -2.1431 C   0  0  0  0  0  0
   15.1568   -1.9529   -1.9705 C   0  0  0  0  0  0
   15.6771   -2.2934   -3.2259 C   0  0  0  0  0  0
   16.1081   -1.2923   -4.1022 C   0  0  0  0  0  0
   16.0074    0.0555   -3.7416 C   0  0  0  0  0  0
   15.4789    0.4180   -2.5002 C   0  0  0  0  0  0
   15.2943    1.8190   -2.1558 C   0  0  0  0  0  0
   16.3883    2.6359   -1.9126 C   0  0  0  0  0  0
   16.1786    3.9217   -1.4285 C   0  0  0  0  0  0
   14.8768    4.4090   -1.3265 C   0  0  0  0  0  0
   13.8361    3.5444   -1.6892 C   0  0  0  0  0  0
   12.2088    4.1165   -1.6587 Cl  0  0  0  0  0  0
   14.0307    2.2696   -2.0777 C   0  0  0  0  0  0
   15.0967   -0.5901   -1.6066 C   0  0  0  0  0  0
   13.0870   -2.7033   -0.8181 C   0  0  0  0  0  0
   12.2401   -2.6018   -1.7019 O   0  0  0  0  0  0
   10.7876   -2.3848    0.5758 H   0  0  0  0  0  0
   11.5731   -2.4718    2.1432 H   0  0  0  0  0  0
   11.6843   -0.9920    1.1642 H   0  0  0  0  0  0
   15.1170   -2.5502    2.7817 H   0  0  0  0  0  0
   16.0427   -2.9945    0.5642 H   0  0  0  0  0  0
   14.3688   -4.5025   -2.5623 H   0  0  0  0  0  0
   14.2531   -5.1137   -0.8946 H   0  0  0  0  0  0
   16.8525   -3.8551   -1.7424 H   0  0  0  0  0  0
   17.7336   -5.6948   -0.1846 H   0  0  0  0  0  0
   16.0508   -6.3443    0.0002 H   0  0  0  0  0  0
   15.9312   -6.7543   -2.5307 H   0  0  0  0  0  0
   17.6140   -6.1047   -2.7154 H   0  0  0  0  0  0
   15.7490   -3.3129   -3.5614 H   0  0  0  0  0  0
   16.5059   -1.5567   -5.0730 H   0  0  0  0  0  0
   16.3465    0.8050   -4.4392 H   0  0  0  0  0  0
   17.3838    2.2867   -2.1457 H   0  0  0  0  0  0
   17.0157    4.5492   -1.1603 H   0  0  0  0  0  0
   14.6964    5.4179   -0.9834 H   0  0  0  0  0  0
   13.2103    1.6191   -2.3313 H   0  0  0  0  0  0
   14.7007   -0.3193   -0.6409 H   0  0  0  0  0  0
   13.4246   -2.2817    3.0007 H   0  0  0  0  0  0
  1  2  1  0  0  0
  1 26  1  0  0  0
  1 27  1  0  0  0
  1 28  1  0  0  0
  2  3  1  0  0  0
  2 24  1  0  0  0
  3  4  1  0  0  0
  3  5  2  0  0  0
  4 29  1  0  0  0
  4 46  1  0  0  0
  5  6  1  0  0  0
  5 30  1  0  0  0
  6  7  1  0  0  0
  6 11  1  0  0  0
  6 24  1  0  0  0
  7  8  1  0  0  0
  7 31  1  0  0  0
  7 32  1  0  0  0
  8  9  1  0  0  0
  8 10  1  0  0  0
  8 33  1  0  0  0
  9 10  1  0  0  0
  9 34  1  0  0  0
  9 35  1  0  0  0
 10 36  1  0  0  0
 10 37  1  0  0  0
 11 12  2  0  0  0
 11 23  1  0  0  0
 12 13  1  0  0  0
 12 38  1  0  0  0
 13 14  2  0  0  0
 13 39  1  0  0  0
 14 15  1  0  0  0
 14 40  1  0  0  0
 15 16  1  0  0  0
 15 23  2  0  0  0
 16 17  2  0  0  0
 16 22  1  0  0  0
 17 18  1  0  0  0
 17 41  1  0  0  0
 18 19  2  0  0  0
 18 42  1  0  0  0
 19 20  1  0  0  0
 19 43  1  0  0  0
 20 21  1  0  0  0
 20 22  2  0  0  0
 22 44  1  0  0  0
 23 45  1  0  0  0
 24 25  2  0  0  0
M  CHG  1   5   1
M  END
> <s_m_entry_id>
1085

> <s_m_entry_name>
Bace_CAT-13i.1

> <s_m_Source_Path>
C:\Users\yujiethinkpad\Desktop\05A\BACE

> <s_m_Source_File>
Bace_CAT-13i.sdf

> <i_m_Source_File_Index>
1

> <s_m_job_name>
align_ligands_3

> <r_user_dG.exp>
-9.273

> <r_m_Molecular_weight>
354.86287

> <i_phase_Input_Structure_Number>
27

> <i_phase_Structure_Number>
27

> <i_phase_Reference_Structure>
36

> <s_phase_Core_SMARTS>
A=A1AA=[A]A1a2aa(aaa2)-a3aaaaa3

> <s_f3d_frozen_atoms>
25 24 2 3 5 6 11 23 15 14 13 12 16 17 18 19 20 22 25 30 45 40 39 38 41 42 43 21 44

> <r_phase_Similarity_to_Reference>
0.872678308813966

> <s_phase_Alignment_Method>
snapped core

> <s_phase_Alignment_Reason>


> <s_m_subgroup_title>
align_ligands_3

> <s_m_subgroupid>
align_ligands_3

> <b_m_subgroup_collapsed>
0

$$$$
