CAT-13f
                    3D
 Schrodinger Suite 2021-2.
 49 52  0  0  1  0            999 V2000
   11.6744   -2.0785    1.1315 C   0  0  0  0  0  0
   12.8825   -2.5349    0.4671 N   0  0  0  0  0  0
   14.1019   -2.6231    1.0447 C   0  0  0  0  0  0
   14.1861   -2.4823    2.3656 N   0  0  0  0  0  0
   15.0794   -2.8321    0.2653 N   0  3  0  0  0  0
   14.5743   -3.0162   -1.0535 C   0  0  1  0  0  0
   15.1568   -1.9529   -1.9705 C   0  0  0  0  0  0
   15.6771   -2.2934   -3.2259 C   0  0  0  0  0  0
   16.1081   -1.2923   -4.1022 C   0  0  0  0  0  0
   16.0074    0.0555   -3.7416 C   0  0  0  0  0  0
   15.4789    0.4180   -2.5002 C   0  0  0  0  0  0
   15.2943    1.8190   -2.1558 C   0  0  0  0  0  0
   14.0307    2.2696   -2.0777 C   0  0  0  0  0  0
   13.8361    3.5444   -1.6892 C   0  0  0  0  0  0
   14.8768    4.4090   -1.3265 C   0  0  0  0  0  0
   16.1786    3.9217   -1.4285 C   0  0  0  0  0  0
   17.5203    4.8969   -0.9504 Cl  0  0  0  0  0  0
   16.3883    2.6359   -1.9126 C   0  0  0  0  0  0
   15.0967   -0.5901   -1.6066 C   0  0  0  0  0  0
   14.7091   -4.5111   -1.5165 C   0  0  0  0  0  0
   16.1212   -5.1119   -1.5323 C   0  0  0  0  0  0
   15.9055   -6.6153   -1.7115 C   0  0  0  0  0  0
   14.5436   -6.9218   -1.0799 C   0  0  0  0  0  0
   13.9284   -5.5668   -0.7057 C   0  0  0  0  0  0
   13.0870   -2.7033   -0.8181 C   0  0  0  0  0  0
   12.2401   -2.6018   -1.7019 O   0  0  0  0  0  0
   11.6843   -0.9920    1.1642 H   0  0  0  0  0  0
   10.7876   -2.3848    0.5758 H   0  0  0  0  0  0
   11.5731   -2.4718    2.1432 H   0  0  0  0  0  0
   13.4246   -2.2817    3.0007 H   0  0  0  0  0  0
   16.0571   -2.7312    0.5349 H   0  0  0  0  0  0
   15.7469   -3.3100   -3.5771 H   0  0  0  0  0  0
   16.4840   -1.5611   -5.0793 H   0  0  0  0  0  0
   16.3273    0.8001   -4.4528 H   0  0  0  0  0  0
   13.2045    1.6012   -2.2709 H   0  0  0  0  0  0
   12.8372    3.9479   -1.6147 H   0  0  0  0  0  0
   14.6602    5.4103   -0.9822 H   0  0  0  0  0  0
   17.3836    2.2667   -2.0928 H   0  0  0  0  0  0
   14.6715   -0.3118   -0.6539 H   0  0  0  0  0  0
   14.3136   -4.5783   -2.5310 H   0  0  0  0  0  0
   16.7468   -4.7200   -2.3275 H   0  0  0  0  0  0
   16.6292   -4.9243   -0.5847 H   0  0  0  0  0  0
   15.8669   -6.8544   -2.7753 H   0  0  0  0  0  0
   16.7130   -7.1992   -1.2677 H   0  0  0  0  0  0
   13.9120   -7.4498   -1.7967 H   0  0  0  0  0  0
   14.6417   -7.5627   -0.2025 H   0  0  0  0  0  0
   14.0616   -5.4018    0.3648 H   0  0  0  0  0  0
   12.8570   -5.5515   -0.9122 H   0  0  0  0  0  0
   15.1170   -2.5502    2.7817 H   0  0  0  0  0  0
  1  2  1  0  0  0
  1 27  1  0  0  0
  1 28  1  0  0  0
  1 29  1  0  0  0
  2  3  1  0  0  0
  2 25  1  0  0  0
  3  4  1  0  0  0
  3  5  2  0  0  0
  4 30  1  0  0  0
  4 49  1  0  0  0
  5  6  1  0  0  0
  5 31  1  0  0  0
  6  7  1  0  0  0
  6 20  1  0  0  0
  6 25  1  0  0  0
  7  8  2  0  0  0
  7 19  1  0  0  0
  8  9  1  0  0  0
  8 32  1  0  0  0
  9 10  2  0  0  0
  9 33  1  0  0  0
 10 11  1  0  0  0
 10 34  1  0  0  0
 11 12  1  0  0  0
 11 19  2  0  0  0
 12 13  2  0  0  0
 12 18  1  0  0  0
 13 14  1  0  0  0
 13 35  1  0  0  0
 14 15  2  0  0  0
 14 36  1  0  0  0
 15 16  1  0  0  0
 15 37  1  0  0  0
 16 17  1  0  0  0
 16 18  2  0  0  0
 18 38  1  0  0  0
 19 39  1  0  0  0
 20 21  1  0  0  0
 20 24  1  0  0  0
 20 40  1  0  0  0
 21 22  1  0  0  0
 21 41  1  0  0  0
 21 42  1  0  0  0
 22 23  1  0  0  0
 22 43  1  0  0  0
 22 44  1  0  0  0
 23 24  1  0  0  0
 23 45  1  0  0  0
 23 46  1  0  0  0
 24 47  1  0  0  0
 24 48  1  0  0  0
 25 26  2  0  0  0
M  CHG  1   5   1
M  END
> <s_m_entry_id>
1082

> <s_m_entry_name>
Bace_CAT-13f.1

> <s_m_Source_Path>
C:\Users\yujiethinkpad\Desktop\05A\BACE

> <s_m_Source_File>
Bace_CAT-13f.sdf

> <i_m_Source_File_Index>
1

> <s_m_job_name>
align_ligands_3

> <r_user_dG.exp>
-9.093

> <r_m_Molecular_weight>
368.88996

> <i_phase_Input_Structure_Number>
24

> <i_phase_Structure_Number>
24

> <i_phase_Reference_Structure>
36

> <s_phase_Core_SMARTS>
A=A1AA=[A]A1a2aa(aaa2)-a3aaaaa3

> <s_f3d_frozen_atoms>
26 25 2 3 5 6 7 19 11 10 9 8 12 18 16 15 14 13 26 31 39 34 33 32 38 17 37 36 35

> <r_phase_Similarity_to_Reference>
0.892098417243872

> <s_phase_Alignment_Method>
snapped core

> <s_phase_Alignment_Reason>


> <s_m_subgroup_title>
align_ligands_3

> <s_m_subgroupid>
align_ligands_3

> <b_m_subgroup_collapsed>
0

$$$$
