CAT-13b
                    3D
 Schrodinger Suite 2021-2.
 42 44  0  0  1  0            999 V2000
   16.2361   -4.7400   -1.5699 C   0  0  0  0  0  0
   14.7715   -4.4167   -1.5531 C   0  0  0  0  0  0
   14.5743   -3.0162   -1.0535 C   0  0  2  0  0  0
   15.1568   -1.9529   -1.9705 C   0  0  0  0  0  0
   15.6771   -2.2934   -3.2259 C   0  0  0  0  0  0
   16.1081   -1.2923   -4.1022 C   0  0  0  0  0  0
   16.0074    0.0555   -3.7416 C   0  0  0  0  0  0
   15.4789    0.4180   -2.5002 C   0  0  0  0  0  0
   15.2943    1.8190   -2.1558 C   0  0  0  0  0  0
   16.3883    2.6359   -1.9126 C   0  0  0  0  0  0
   16.1786    3.9217   -1.4285 C   0  0  0  0  0  0
   14.8768    4.4090   -1.3265 C   0  0  0  0  0  0
   13.8361    3.5444   -1.6892 C   0  0  0  0  0  0
   12.2088    4.1165   -1.6587 Cl  0  0  0  0  0  0
   14.0307    2.2696   -2.0777 C   0  0  0  0  0  0
   15.0967   -0.5901   -1.6066 C   0  0  0  0  0  0
   15.0794   -2.8321    0.2653 N   0  3  0  0  0  0
   14.1019   -2.6231    1.0447 C   0  0  0  0  0  0
   14.1861   -2.4823    2.3656 N   0  0  0  0  0  0
   12.8825   -2.5349    0.4671 N   0  0  0  0  0  0
   11.6744   -2.0785    1.1315 C   0  0  0  0  0  0
   13.0870   -2.7033   -0.8181 C   0  0  0  0  0  0
   12.2401   -2.6018   -1.7019 O   0  0  0  0  0  0
   16.3794   -5.7577   -1.9329 H   0  0  0  0  0  0
   16.7545   -4.0430   -2.2284 H   0  0  0  0  0  0
   16.6388   -4.6542   -0.5607 H   0  0  0  0  0  0
   14.2531   -5.1137   -0.8946 H   0  0  0  0  0  0
   14.3688   -4.5025   -2.5623 H   0  0  0  0  0  0
   15.7556   -3.3131   -3.5658 H   0  0  0  0  0  0
   16.5076   -1.5595   -5.0712 H   0  0  0  0  0  0
   16.3533    0.8014   -4.4392 H   0  0  0  0  0  0
   17.3846    2.2865   -2.1415 H   0  0  0  0  0  0
   17.0162    4.5474   -1.1576 H   0  0  0  0  0  0
   14.6966    5.4175   -0.9822 H   0  0  0  0  0  0
   13.2112    1.6165   -2.3265 H   0  0  0  0  0  0
   14.6971   -0.3151   -0.6426 H   0  0  0  0  0  0
   16.0765   -2.9017    0.4808 H   0  0  0  0  0  0
   15.1170   -2.5502    2.7817 H   0  0  0  0  0  0
   10.7876   -2.3848    0.5758 H   0  0  0  0  0  0
   11.5731   -2.4718    2.1432 H   0  0  0  0  0  0
   11.6843   -0.9920    1.1642 H   0  0  0  0  0  0
   13.4246   -2.2817    3.0007 H   0  0  0  0  0  0
  1  2  1  0  0  0
  1 24  1  0  0  0
  1 25  1  0  0  0
  1 26  1  0  0  0
  2  3  1  0  0  0
  2 27  1  0  0  0
  2 28  1  0  0  0
  3  4  1  0  0  0
  3 17  1  0  0  0
  3 22  1  0  0  0
  4  5  2  0  0  0
  4 16  1  0  0  0
  5  6  1  0  0  0
  5 29  1  0  0  0
  6  7  2  0  0  0
  6 30  1  0  0  0
  7  8  1  0  0  0
  7 31  1  0  0  0
  8  9  1  0  0  0
  8 16  2  0  0  0
  9 10  2  0  0  0
  9 15  1  0  0  0
 10 11  1  0  0  0
 10 32  1  0  0  0
 11 12  2  0  0  0
 11 33  1  0  0  0
 12 13  1  0  0  0
 12 34  1  0  0  0
 13 14  1  0  0  0
 13 15  2  0  0  0
 15 35  1  0  0  0
 16 36  1  0  0  0
 17 18  2  0  0  0
 17 37  1  0  0  0
 18 19  1  0  0  0
 18 20  1  0  0  0
 19 38  1  0  0  0
 19 42  1  0  0  0
 20 21  1  0  0  0
 20 22  1  0  0  0
 21 39  1  0  0  0
 21 40  1  0  0  0
 21 41  1  0  0  0
 22 23  2  0  0  0
M  CHG  1  17   1
M  END
> <s_m_entry_id>
1078

> <s_m_entry_name>
Bace_CAT-13b.1

> <s_m_Source_Path>
C:\Users\yujiethinkpad\Desktop\05A\BACE

> <s_m_Source_File>
Bace_CAT-13b.sdf

> <i_m_Source_File_Index>
1

> <s_m_job_name>
align_ligands_3

> <r_user_dG.exp>
-9.123

> <r_m_Molecular_weight>
328.82463

> <i_phase_Input_Structure_Number>
20

> <i_phase_Structure_Number>
20

> <i_phase_Reference_Structure>
36

> <s_phase_Core_SMARTS>
A=A1AA=[A]A1a2aa(aaa2)-a3aaaaa3

> <s_f3d_frozen_atoms>
23 22 20 18 17 3 4 16 8 7 6 5 9 10 11 12 13 15 23 37 36 31 30 29 32 33 34 14 35

> <r_phase_Similarity_to_Reference>
0.821416770690275

> <s_phase_Alignment_Method>
snapped core

> <s_phase_Alignment_Reason>


> <s_m_subgroup_title>
align_ligands_3

> <s_m_subgroupid>
align_ligands_3

> <b_m_subgroup_collapsed>
0

$$$$
