CAT-13e
                    3D
 Schrodinger Suite 2021-2.
 46 49  0  0  1  0            999 V2000
   11.6744   -2.0785    1.1315 C   0  0  0  0  0  0
   12.8825   -2.5349    0.4671 N   0  0  0  0  0  0
   14.1019   -2.6231    1.0447 C   0  0  0  0  0  0
   14.1861   -2.4823    2.3656 N   0  0  0  0  0  0
   15.0794   -2.8321    0.2653 N   0  3  0  0  0  0
   14.5743   -3.0162   -1.0535 C   0  0  1  0  0  0
   15.1568   -1.9529   -1.9705 C   0  0  0  0  0  0
   15.6771   -2.2934   -3.2259 C   0  0  0  0  0  0
   16.1081   -1.2923   -4.1022 C   0  0  0  0  0  0
   16.0074    0.0555   -3.7416 C   0  0  0  0  0  0
   15.4789    0.4180   -2.5002 C   0  0  0  0  0  0
   15.2943    1.8190   -2.1558 C   0  0  0  0  0  0
   14.0307    2.2696   -2.0777 C   0  0  0  0  0  0
   13.8361    3.5444   -1.6892 C   0  0  0  0  0  0
   14.8768    4.4090   -1.3265 C   0  0  0  0  0  0
   16.1786    3.9217   -1.4285 C   0  0  0  0  0  0
   17.5203    4.8969   -0.9504 Cl  0  0  0  0  0  0
   16.3883    2.6359   -1.9126 C   0  0  0  0  0  0
   15.0967   -0.5901   -1.6066 C   0  0  0  0  0  0
   14.7238   -4.4849   -1.5270 C   0  0  0  0  0  0
   16.0650   -5.2384   -1.4708 C   0  0  0  0  0  0
   15.2749   -6.5321   -1.2584 C   0  0  0  0  0  0
   14.1345   -5.6617   -0.7223 C   0  0  0  0  0  0
   13.0870   -2.7033   -0.8181 C   0  0  0  0  0  0
   12.2401   -2.6018   -1.7019 O   0  0  0  0  0  0
   10.7876   -2.3848    0.5758 H   0  0  0  0  0  0
   11.6843   -0.9920    1.1642 H   0  0  0  0  0  0
   11.5731   -2.4718    2.1432 H   0  0  0  0  0  0
   13.4246   -2.2817    3.0007 H   0  0  0  0  0  0
   16.0574   -2.7234    0.5321 H   0  0  0  0  0  0
   15.7403   -3.3135   -3.5715 H   0  0  0  0  0  0
   16.4900   -1.5591   -5.0783 H   0  0  0  0  0  0
   16.3405    0.8026   -4.4436 H   0  0  0  0  0  0
   13.2064    1.6004   -2.2768 H   0  0  0  0  0  0
   12.8370    3.9481   -1.6176 H   0  0  0  0  0  0
   14.6597    5.4100   -0.9819 H   0  0  0  0  0  0
   17.3836    2.2676   -2.0963 H   0  0  0  0  0  0
   14.6811   -0.3087   -0.6507 H   0  0  0  0  0  0
   14.3228   -4.5814   -2.5390 H   0  0  0  0  0  0
   16.6731   -4.9755   -0.6032 H   0  0  0  0  0  0
   16.6460   -5.2234   -2.3924 H   0  0  0  0  0  0
   15.0221   -7.0353   -2.1948 H   0  0  0  0  0  0
   15.7096   -7.2210   -0.5330 H   0  0  0  0  0  0
   14.1900   -5.5251    0.3594 H   0  0  0  0  0  0
   13.1393   -5.9798   -1.0376 H   0  0  0  0  0  0
   15.1170   -2.5502    2.7817 H   0  0  0  0  0  0
  1  2  1  0  0  0
  1 26  1  0  0  0
  1 27  1  0  0  0
  1 28  1  0  0  0
  2  3  1  0  0  0
  2 24  1  0  0  0
  3  4  1  0  0  0
  3  5  2  0  0  0
  4 29  1  0  0  0
  4 46  1  0  0  0
  5  6  1  0  0  0
  5 30  1  0  0  0
  6  7  1  0  0  0
  6 20  1  0  0  0
  6 24  1  0  0  0
  7  8  2  0  0  0
  7 19  1  0  0  0
  8  9  1  0  0  0
  8 31  1  0  0  0
  9 10  2  0  0  0
  9 32  1  0  0  0
 10 11  1  0  0  0
 10 33  1  0  0  0
 11 12  1  0  0  0
 11 19  2  0  0  0
 12 13  2  0  0  0
 12 18  1  0  0  0
 13 14  1  0  0  0
 13 34  1  0  0  0
 14 15  2  0  0  0
 14 35  1  0  0  0
 15 16  1  0  0  0
 15 36  1  0  0  0
 16 17  1  0  0  0
 16 18  2  0  0  0
 18 37  1  0  0  0
 19 38  1  0  0  0
 20 21  1  0  0  0
 20 23  1  0  0  0
 20 39  1  0  0  0
 21 22  1  0  0  0
 21 40  1  0  0  0
 21 41  1  0  0  0
 22 23  1  0  0  0
 22 42  1  0  0  0
 22 43  1  0  0  0
 23 44  1  0  0  0
 23 45  1  0  0  0
 24 25  2  0  0  0
M  CHG  1   5   1
M  END
> <s_m_entry_id>
1081

> <s_m_entry_name>
Bace_CAT-13e.1

> <s_m_Source_Path>
C:\Users\yujiethinkpad\Desktop\05A\BACE

> <s_m_Source_File>
Bace_CAT-13e.sdf

> <i_m_Source_File_Index>
1

> <s_m_job_name>
align_ligands_3

> <r_user_dG.exp>
-9.963

> <r_m_Molecular_weight>
354.86287

> <i_phase_Input_Structure_Number>
23

> <i_phase_Structure_Number>
23

> <i_phase_Reference_Structure>
36

> <s_phase_Core_SMARTS>
A=A1AA=[A]A1a2aa(aaa2)-a3aaaaa3

> <s_f3d_frozen_atoms>
25 24 2 3 5 6 7 19 11 10 9 8 12 18 16 15 14 13 25 30 38 33 32 31 37 17 36 35 34

> <r_phase_Similarity_to_Reference>
0.895971767000961

> <s_phase_Alignment_Method>
snapped core

> <s_phase_Alignment_Reason>


> <s_m_subgroup_title>
align_ligands_3

> <s_m_subgroupid>
align_ligands_3

> <b_m_subgroup_collapsed>
0

$$$$
