CAT-13d
                    3D
 Schrodinger Suite 2021-2.
 43 46  0  0  1  0            999 V2000
   11.6744   -2.0785    1.1315 C   0  0  0  0  0  0
   12.8825   -2.5349    0.4671 N   0  0  0  0  0  0
   14.1019   -2.6231    1.0447 C   0  0  0  0  0  0
   14.1861   -2.4823    2.3656 N   0  0  0  0  0  0
   15.0794   -2.8321    0.2653 N   0  3  0  0  0  0
   14.5743   -3.0162   -1.0535 C   0  0  1  0  0  0
   15.1568   -1.9529   -1.9705 C   0  0  0  0  0  0
   15.6771   -2.2934   -3.2259 C   0  0  0  0  0  0
   16.1081   -1.2923   -4.1022 C   0  0  0  0  0  0
   16.0074    0.0555   -3.7416 C   0  0  0  0  0  0
   15.4789    0.4180   -2.5002 C   0  0  0  0  0  0
   15.2943    1.8190   -2.1558 C   0  0  0  0  0  0
   16.3883    2.6359   -1.9126 C   0  0  0  0  0  0
   16.1786    3.9217   -1.4285 C   0  0  0  0  0  0
   14.8768    4.4090   -1.3265 C   0  0  0  0  0  0
   13.8361    3.5444   -1.6892 C   0  0  0  0  0  0
   12.2088    4.1165   -1.6587 Cl  0  0  0  0  0  0
   14.0307    2.2696   -2.0777 C   0  0  0  0  0  0
   15.0967   -0.5901   -1.6066 C   0  0  0  0  0  0
   14.7718   -4.4168   -1.5528 C   0  0  0  0  0  0
   16.0165   -5.1699   -1.1410 C   0  0  0  0  0  0
   14.6721   -5.5625   -0.5713 C   0  0  0  0  0  0
   13.0870   -2.7033   -0.8181 C   0  0  0  0  0  0
   12.2401   -2.6018   -1.7019 O   0  0  0  0  0  0
   10.7876   -2.3848    0.5758 H   0  0  0  0  0  0
   11.5731   -2.4718    2.1432 H   0  0  0  0  0  0
   11.6843   -0.9920    1.1642 H   0  0  0  0  0  0
   15.1170   -2.5502    2.7817 H   0  0  0  0  0  0
   16.0570   -2.8836    0.5593 H   0  0  0  0  0  0
   15.7485   -3.3180   -3.5610 H   0  0  0  0  0  0
   16.4999   -1.5593   -5.0743 H   0  0  0  0  0  0
   16.3426    0.8004   -4.4462 H   0  0  0  0  0  0
   17.3845    2.2881   -2.1438 H   0  0  0  0  0  0
   17.0162    4.5481   -1.1592 H   0  0  0  0  0  0
   14.6965    5.4175   -0.9821 H   0  0  0  0  0  0
   13.2108    1.6178   -2.3281 H   0  0  0  0  0  0
   14.6965   -0.3160   -0.6426 H   0  0  0  0  0  0
   14.3830   -4.5535   -2.5642 H   0  0  0  0  0  0
   16.4960   -5.8320   -1.8652 H   0  0  0  0  0  0
   16.7409   -4.6755   -0.4903 H   0  0  0  0  0  0
   14.4588   -5.3420    0.4769 H   0  0  0  0  0  0
   14.2139   -6.4985   -0.8981 H   0  0  0  0  0  0
   13.4246   -2.2817    3.0007 H   0  0  0  0  0  0
  1  2  1  0  0  0
  1 25  1  0  0  0
  1 26  1  0  0  0
  1 27  1  0  0  0
  2  3  1  0  0  0
  2 23  1  0  0  0
  3  4  1  0  0  0
  3  5  2  0  0  0
  4 28  1  0  0  0
  4 43  1  0  0  0
  5  6  1  0  0  0
  5 29  1  0  0  0
  6  7  1  0  0  0
  6 20  1  0  0  0
  6 23  1  0  0  0
  7  8  2  0  0  0
  7 19  1  0  0  0
  8  9  1  0  0  0
  8 30  1  0  0  0
  9 10  2  0  0  0
  9 31  1  0  0  0
 10 11  1  0  0  0
 10 32  1  0  0  0
 11 12  1  0  0  0
 11 19  2  0  0  0
 12 13  2  0  0  0
 12 18  1  0  0  0
 13 14  1  0  0  0
 13 33  1  0  0  0
 14 15  2  0  0  0
 14 34  1  0  0  0
 15 16  1  0  0  0
 15 35  1  0  0  0
 16 18  2  0  0  0
 16 17  1  0  0  0
 18 36  1  0  0  0
 19 37  1  0  0  0
 20 21  1  0  0  0
 20 22  1  0  0  0
 20 38  1  0  0  0
 21 22  1  0  0  0
 21 39  1  0  0  0
 21 40  1  0  0  0
 22 41  1  0  0  0
 22 42  1  0  0  0
 23 24  2  0  0  0
M  CHG  1   5   1
M  END
> <s_m_entry_id>
1080

> <s_m_entry_name>
Bace_CAT-13d.1

> <s_m_Source_Path>
C:\Users\yujiethinkpad\Desktop\05A\BACE

> <s_m_Source_File>
Bace_CAT-13d.sdf

> <i_m_Source_File_Index>
1

> <s_m_job_name>
align_ligands_3

> <r_user_dG.exp>
-10.473

> <r_m_Molecular_weight>
340.83578

> <i_phase_Input_Structure_Number>
22

> <i_phase_Structure_Number>
22

> <i_phase_Reference_Structure>
36

> <s_phase_Core_SMARTS>
A=A1AA=[A]A1a2aa(aaa2)-a3aaaaa3

> <s_f3d_frozen_atoms>
24 23 2 3 5 6 7 19 11 10 9 8 12 13 14 15 16 18 24 29 37 32 31 30 33 34 35 17 36

> <r_phase_Similarity_to_Reference>
0.853734162427859

> <s_phase_Alignment_Method>
snapped core

> <s_phase_Alignment_Reason>


> <s_m_subgroup_title>
align_ligands_3

> <s_m_subgroupid>
align_ligands_3

> <b_m_subgroup_collapsed>
0

$$$$
