CAT-17b
                    3D
 Schrodinger Suite 2021-2.
 47 50  0  0  1  0            999 V2000
   12.1817    5.2700   -1.6956 C   0  0  0  0  0  0
   12.5043    3.8908   -1.6948 O   0  0  0  0  0  0
   13.8361    3.5444   -1.6892 C   0  0  0  0  0  0
   14.8768    4.4090   -1.3265 C   0  0  0  0  0  0
   16.1786    3.9217   -1.4285 C   0  0  0  0  0  0
   16.3883    2.6359   -1.9126 C   0  0  0  0  0  0
   15.2943    1.8190   -2.1558 C   0  0  0  0  0  0
   15.4789    0.4180   -2.5002 C   0  0  0  0  0  0
   16.0074    0.0555   -3.7416 C   0  0  0  0  0  0
   16.1081   -1.2923   -4.1022 C   0  0  0  0  0  0
   15.6771   -2.2934   -3.2259 C   0  0  0  0  0  0
   15.1568   -1.9529   -1.9705 C   0  0  0  0  0  0
   14.5743   -3.0162   -1.0535 C   0  0  1  0  0  0
   14.7719   -4.4165   -1.5534 C   0  0  0  0  0  0
   16.0167   -5.1697   -1.1421 C   0  0  0  0  0  0
   14.6725   -5.5627   -0.5724 C   0  0  0  0  0  0
   15.0794   -2.8321    0.2653 N   0  3  0  0  0  0
   14.1019   -2.6231    1.0447 C   0  0  0  0  0  0
   14.1861   -2.4823    2.3656 N   0  0  0  0  0  0
   12.8825   -2.5349    0.4671 N   0  0  0  0  0  0
   11.6744   -2.0785    1.1315 C   0  0  0  0  0  0
   13.0870   -2.7033   -0.8181 C   0  0  0  0  0  0
   12.2401   -2.6018   -1.7019 O   0  0  0  0  0  0
   15.0967   -0.5901   -1.6066 C   0  0  0  0  0  0
   14.0307    2.2696   -2.0777 C   0  0  0  0  0  0
   11.1070    5.3943   -1.8296 H   0  0  0  0  0  0
   12.4571    5.7551   -0.7647 H   0  0  0  0  0  0
   12.6874    5.7813   -2.5118 H   0  0  0  0  0  0
   14.6907    5.4112   -0.9721 H   0  0  0  0  0  0
   17.0017    4.5550   -1.1426 H   0  0  0  0  0  0
   17.4000    2.3177   -2.1291 H   0  0  0  0  0  0
   16.3216    0.8231   -4.4299 H   0  0  0  0  0  0
   16.5133   -1.5330   -5.0740 H   0  0  0  0  0  0
   15.7693   -3.3001   -3.5850 H   0  0  0  0  0  0
   14.3830   -4.5528   -2.5648 H   0  0  0  0  0  0
   16.4962   -5.8314   -1.8667 H   0  0  0  0  0  0
   16.7412   -4.6755   -0.4913 H   0  0  0  0  0  0
   14.4593   -5.3427    0.4759 H   0  0  0  0  0  0
   14.2143   -6.4986   -0.8995 H   0  0  0  0  0  0
   16.0784   -2.8224    0.4765 H   0  0  0  0  0  0
   15.1170   -2.5502    2.7817 H   0  0  0  0  0  0
   10.7876   -2.3848    0.5758 H   0  0  0  0  0  0
   11.6843   -0.9920    1.1642 H   0  0  0  0  0  0
   11.5731   -2.4718    2.1432 H   0  0  0  0  0  0
   14.7006   -0.2890   -0.6496 H   0  0  0  0  0  0
   13.1664    1.6778   -2.3208 H   0  0  0  0  0  0
   13.4246   -2.2817    3.0007 H   0  0  0  0  0  0
  1  2  1  0  0  0
  1 26  1  0  0  0
  1 27  1  0  0  0
  1 28  1  0  0  0
  2  3  1  0  0  0
  3  4  2  0  0  0
  3 25  1  0  0  0
  4  5  1  0  0  0
  4 29  1  0  0  0
  5  6  2  0  0  0
  5 30  1  0  0  0
  6  7  1  0  0  0
  6 31  1  0  0  0
  7  8  1  0  0  0
  7 25  2  0  0  0
  8  9  2  0  0  0
  8 24  1  0  0  0
  9 10  1  0  0  0
  9 32  1  0  0  0
 10 11  2  0  0  0
 10 33  1  0  0  0
 11 12  1  0  0  0
 11 34  1  0  0  0
 12 13  1  0  0  0
 12 24  2  0  0  0
 13 14  1  0  0  0
 13 17  1  0  0  0
 13 22  1  0  0  0
 14 15  1  0  0  0
 14 16  1  0  0  0
 14 35  1  0  0  0
 15 16  1  0  0  0
 15 36  1  0  0  0
 15 37  1  0  0  0
 16 38  1  0  0  0
 16 39  1  0  0  0
 17 18  2  0  0  0
 17 40  1  0  0  0
 18 19  1  0  0  0
 18 20  1  0  0  0
 19 41  1  0  0  0
 19 47  1  0  0  0
 20 21  1  0  0  0
 20 22  1  0  0  0
 21 42  1  0  0  0
 21 43  1  0  0  0
 21 44  1  0  0  0
 22 23  2  0  0  0
 24 45  1  0  0  0
 25 46  1  0  0  0
M  CHG  1  17   1
M  END
> <s_m_entry_id>
1092

> <s_m_entry_name>
Bace_CAT-17b.1

> <s_m_Source_Path>
C:\Users\yujiethinkpad\Desktop\05A\BACE

> <s_m_Source_File>
Bace_CAT-17b.sdf

> <i_m_Source_File_Index>
1

> <s_m_job_name>
align_ligands_3

> <r_user_dG.exp>
-10.023

> <r_m_Molecular_weight>
336.41724

> <i_phase_Input_Structure_Number>
34

> <i_phase_Structure_Number>
34

> <i_phase_Reference_Structure>
36

> <s_phase_Core_SMARTS>
A=A1AA=[A]A1a2aa(aaa2)-a3aaaaa3

> <s_f3d_frozen_atoms>
23 22 20 18 17 13 12 24 8 9 10 11 7 6 5 4 3 25 23 40 45 32 33 34 31 30 29 46

> <r_phase_Similarity_to_Reference>
0.857599366260918

> <s_phase_Alignment_Method>
snapped core

> <s_phase_Alignment_Reason>


> <s_m_subgroup_title>
align_ligands_3

> <s_m_subgroupid>
align_ligands_3

> <b_m_subgroup_collapsed>
0

$$$$
