CAT-4k
                    3D
 Schrodinger Suite 2021-2.
 45 48  0  0  1  0            999 V2000
   11.6744   -2.0785    1.1315 C   0  0  0  0  0  0
   12.8825   -2.5349    0.4671 N   0  0  0  0  0  0
   14.1019   -2.6231    1.0447 C   0  0  0  0  0  0
   14.1861   -2.4823    2.3656 N   0  0  0  0  0  0
   15.0794   -2.8321    0.2653 N   0  3  0  0  0  0
   14.5743   -3.0162   -1.0535 C   0  0  2  0  0  0
   14.8450   -4.4843   -1.3982 C   0  0  0  0  0  0
   13.8080   -5.3725   -1.7463 C   0  0  0  0  0  0
   14.0708   -6.7232   -1.9776 C   0  0  0  0  0  0
   15.3737   -7.2123   -1.8761 C   0  0  0  0  0  0
   16.4189   -6.3489   -1.5410 C   0  0  0  0  0  0
   16.1561   -4.9942   -1.2936 C   0  0  0  0  0  0
   15.1568   -1.9529   -1.9705 C   0  0  0  0  0  0
   15.6771   -2.2934   -3.2259 C   0  0  0  0  0  0
   16.1081   -1.2923   -4.1022 C   0  0  0  0  0  0
   16.0074    0.0555   -3.7416 C   0  0  0  0  0  0
   15.4789    0.4180   -2.5002 C   0  0  0  0  0  0
   15.2943    1.8190   -2.1558 C   0  0  0  0  0  0
   16.3883    2.6359   -1.9126 C   0  0  0  0  0  0
   16.1786    3.9217   -1.4285 C   0  0  0  0  0  0
   14.8768    4.4090   -1.3265 N   0  0  0  0  0  0
   13.8361    3.5444   -1.6892 C   0  0  0  0  0  0
   14.0307    2.2696   -2.0777 C   0  0  0  0  0  0
   15.0967   -0.5901   -1.6066 C   0  0  0  0  0  0
   13.0870   -2.7033   -0.8181 C   0  0  0  0  0  0
   12.2401   -2.6018   -1.7019 O   0  0  0  0  0  0
   11.6843   -0.9920    1.1642 H   0  0  0  0  0  0
   10.7876   -2.3848    0.5758 H   0  0  0  0  0  0
   11.5731   -2.4718    2.1432 H   0  0  0  0  0  0
   15.1170   -2.5502    2.7817 H   0  0  0  0  0  0
   16.0561   -2.8622    0.5576 H   0  0  0  0  0  0
   12.7893   -5.0354   -1.8217 H   0  0  0  0  0  0
   13.2659   -7.3972   -2.2303 H   0  0  0  0  0  0
   15.5896   -8.2537   -2.0374 H   0  0  0  0  0  0
   17.4292   -6.7222   -1.4462 H   0  0  0  0  0  0
   16.9618   -4.3457   -1.0012 H   0  0  0  0  0  0
   15.7551   -3.3235   -3.5474 H   0  0  0  0  0  0
   16.5156   -1.5517   -5.0691 H   0  0  0  0  0  0
   16.3478    0.8056   -4.4376 H   0  0  0  0  0  0
   17.3876    2.2906   -2.1032 H   0  0  0  0  0  0
   17.0137    4.5406   -1.1342 H   0  0  0  0  0  0
   12.8435    3.9606   -1.6210 H   0  0  0  0  0  0
   13.1936    1.6213   -2.2886 H   0  0  0  0  0  0
   14.7149   -0.3213   -0.6334 H   0  0  0  0  0  0
   13.4246   -2.2817    3.0007 H   0  0  0  0  0  0
  1  2  1  0  0  0
  1 27  1  0  0  0
  1 28  1  0  0  0
  1 29  1  0  0  0
  2  3  1  0  0  0
  2 25  1  0  0  0
  3  4  1  0  0  0
  3  5  2  0  0  0
  4 30  1  0  0  0
  4 45  1  0  0  0
  5  6  1  0  0  0
  5 31  1  0  0  0
  6  7  1  0  0  0
  6 13  1  0  0  0
  6 25  1  0  0  0
  7  8  2  0  0  0
  7 12  1  0  0  0
  8  9  1  0  0  0
  8 32  1  0  0  0
  9 10  2  0  0  0
  9 33  1  0  0  0
 10 11  1  0  0  0
 10 34  1  0  0  0
 11 12  2  0  0  0
 11 35  1  0  0  0
 12 36  1  0  0  0
 13 14  2  0  0  0
 13 24  1  0  0  0
 14 15  1  0  0  0
 14 37  1  0  0  0
 15 16  2  0  0  0
 15 38  1  0  0  0
 16 17  1  0  0  0
 16 39  1  0  0  0
 17 18  1  0  0  0
 17 24  2  0  0  0
 18 19  2  0  0  0
 18 23  1  0  0  0
 19 20  1  0  0  0
 19 40  1  0  0  0
 20 21  2  0  0  0
 20 41  1  0  0  0
 21 22  1  0  0  0
 22 23  2  0  0  0
 22 42  1  0  0  0
 23 43  1  0  0  0
 24 44  1  0  0  0
 25 26  2  0  0  0
M  CHG  1   5   1
M  END
> <s_m_entry_id>
1071

> <s_m_entry_name>
Bace_CAT-4k.1

> <s_m_Source_Path>
C:\Users\yujiethinkpad\Desktop\05A\BACE

> <s_m_Source_File>
Bace_CAT-4k.sdf

> <i_m_Source_File_Index>
1

> <s_m_job_name>
align_ligands_3

> <r_user_dG.exp>
-7.853

> <r_m_Molecular_weight>
343.41178

> <i_phase_Input_Structure_Number>
13

> <i_phase_Structure_Number>
13

> <i_phase_Reference_Structure>
36

> <s_phase_Core_SMARTS>
a1aaaaa1A2(A(=A)AA=[A]2)a3aa(aaa3)-a4aaaaa4

> <s_f3d_frozen_atoms>
12 11 10 9 8 7 6 25 26 2 3 5 13 24 17 16 15 14 18 19 20 21 22 23 36 35 34 33 32 26 31 44 39 38 37 40 41 42 43

> <r_phase_Similarity_to_Reference>
0.956007282835777

> <s_phase_Alignment_Method>
snapped core

> <s_phase_Alignment_Reason>


> <s_m_subgroup_title>
align_ligands_3

> <s_m_subgroupid>
align_ligands_3

> <b_m_subgroup_collapsed>
0

$$$$
