CAT-13a
                    3D
 Schrodinger Suite 2021-2.
 39 41  0  0  1  0            999 V2000
   11.6744   -2.0785    1.1315 C   0  0  0  0  0  0
   12.8825   -2.5349    0.4671 N   0  0  0  0  0  0
   14.1019   -2.6231    1.0447 C   0  0  0  0  0  0
   14.1861   -2.4823    2.3656 N   0  0  0  0  0  0
   15.0794   -2.8321    0.2653 N   0  3  0  0  0  0
   14.5743   -3.0162   -1.0535 C   0  0  2  0  0  0
   14.7845   -4.4810   -1.4947 C   0  0  0  0  0  0
   15.1568   -1.9529   -1.9705 C   0  0  0  0  0  0
   15.6771   -2.2934   -3.2259 C   0  0  0  0  0  0
   16.1081   -1.2923   -4.1022 C   0  0  0  0  0  0
   16.0074    0.0555   -3.7416 C   0  0  0  0  0  0
   15.4789    0.4180   -2.5002 C   0  0  0  0  0  0
   15.2943    1.8190   -2.1558 C   0  0  0  0  0  0
   14.0307    2.2696   -2.0777 C   0  0  0  0  0  0
   13.8361    3.5444   -1.6892 C   0  0  0  0  0  0
   14.8768    4.4090   -1.3265 C   0  0  0  0  0  0
   16.1786    3.9217   -1.4285 C   0  0  0  0  0  0
   17.5203    4.8969   -0.9504 Cl  0  0  0  0  0  0
   16.3883    2.6359   -1.9126 C   0  0  0  0  0  0
   15.0967   -0.5901   -1.6066 C   0  0  0  0  0  0
   13.0870   -2.7033   -0.8181 C   0  0  0  0  0  0
   12.2401   -2.6018   -1.7019 O   0  0  0  0  0  0
   11.6843   -0.9920    1.1642 H   0  0  0  0  0  0
   10.7876   -2.3848    0.5758 H   0  0  0  0  0  0
   11.5731   -2.4718    2.1432 H   0  0  0  0  0  0
   15.1170   -2.5502    2.7817 H   0  0  0  0  0  0
   16.0604   -2.7833    0.5460 H   0  0  0  0  0  0
   15.8397   -4.6956   -1.6687 H   0  0  0  0  0  0
   14.4395   -5.1807   -0.7328 H   0  0  0  0  0  0
   14.2365   -4.7079   -2.4111 H   0  0  0  0  0  0
   15.7451   -3.3155   -3.5681 H   0  0  0  0  0  0
   16.4948   -1.5605   -5.0758 H   0  0  0  0  0  0
   16.3427    0.8018   -4.4440 H   0  0  0  0  0  0
   13.2068    1.6004   -2.2777 H   0  0  0  0  0  0
   12.8365    3.9475   -1.6181 H   0  0  0  0  0  0
   14.6597    5.4099   -0.9811 H   0  0  0  0  0  0
   17.3845    2.2679   -2.0937 H   0  0  0  0  0  0
   14.6883   -0.3136   -0.6465 H   0  0  0  0  0  0
   13.4246   -2.2817    3.0007 H   0  0  0  0  0  0
  1  2  1  0  0  0
  1 23  1  0  0  0
  1 24  1  0  0  0
  1 25  1  0  0  0
  2  3  1  0  0  0
  2 21  1  0  0  0
  3  4  1  0  0  0
  3  5  2  0  0  0
  4 26  1  0  0  0
  4 39  1  0  0  0
  5  6  1  0  0  0
  5 27  1  0  0  0
  6  7  1  0  0  0
  6  8  1  0  0  0
  6 21  1  0  0  0
  7 28  1  0  0  0
  7 29  1  0  0  0
  7 30  1  0  0  0
  8  9  2  0  0  0
  8 20  1  0  0  0
  9 10  1  0  0  0
  9 31  1  0  0  0
 10 11  2  0  0  0
 10 32  1  0  0  0
 11 12  1  0  0  0
 11 33  1  0  0  0
 12 13  1  0  0  0
 12 20  2  0  0  0
 13 14  2  0  0  0
 13 19  1  0  0  0
 14 15  1  0  0  0
 14 34  1  0  0  0
 15 16  2  0  0  0
 15 35  1  0  0  0
 16 17  1  0  0  0
 16 36  1  0  0  0
 17 18  1  0  0  0
 17 19  2  0  0  0
 19 37  1  0  0  0
 20 38  1  0  0  0
 21 22  2  0  0  0
M  CHG  1   5   1
M  END
> <i_m_stars>
2

> <s_m_entry_id>
1077

> <s_m_entry_name>
Bace_CAT-13a.1

> <s_m_Source_Path>
C:\Users\yujiethinkpad\Desktop\05A\BACE

> <s_m_Source_File>
Bace_CAT-13a.sdf

> <i_m_Source_File_Index>
1

> <s_m_job_name>
align_ligands_3

> <r_user_dG.exp>
-8.843

> <r_m_Molecular_weight>
314.79754

> <i_phase_Input_Structure_Number>
19

> <i_phase_Structure_Number>
19

> <i_phase_Reference_Structure>
36

> <s_phase_Core_SMARTS>
A=A1AA=[A]A1a2aa(aaa2)-a3aaaaa3

> <s_f3d_frozen_atoms>
22 21 2 3 5 6 8 20 12 11 10 9 13 19 17 16 15 14 22 27 38 33 32 31 37 18 36 35 34

> <r_phase_Similarity_to_Reference>
0.779530290957104

> <s_phase_Alignment_Method>
snapped core

> <s_phase_Alignment_Reason>


> <s_m_subgroup_title>
align_ligands_3

> <s_m_subgroupid>
align_ligands_3

> <b_m_subgroup_collapsed>
0

$$$$
