CAT-17g
                    3D
 Schrodinger Suite 2021-2.
 42 45  0  0  1  0            999 V2000
   11.6744   -2.0785    1.1315 C   0  0  0  0  0  0
   12.8825   -2.5349    0.4671 N   0  0  0  0  0  0
   14.1019   -2.6231    1.0447 C   0  0  0  0  0  0
   14.1861   -2.4823    2.3656 N   0  0  0  0  0  0
   15.0794   -2.8321    0.2653 N   0  3  0  0  0  0
   14.5743   -3.0162   -1.0535 C   0  0  1  0  0  0
   15.1568   -1.9529   -1.9705 C   0  0  0  0  0  0
   15.6771   -2.2934   -3.2259 C   0  0  0  0  0  0
   16.1081   -1.2923   -4.1022 C   0  0  0  0  0  0
   16.0074    0.0555   -3.7416 C   0  0  0  0  0  0
   15.4789    0.4180   -2.5002 C   0  0  0  0  0  0
   15.2943    1.8190   -2.1558 C   0  0  0  0  0  0
   14.0307    2.2696   -2.0777 C   0  0  0  0  0  0
   13.8361    3.5444   -1.6892 N   0  0  0  0  0  0
   14.8768    4.4090   -1.3265 C   0  0  0  0  0  0
   16.1786    3.9217   -1.4285 C   0  0  0  0  0  0
   17.2399    4.6777   -1.0583 F   0  0  0  0  0  0
   16.3883    2.6359   -1.9126 C   0  0  0  0  0  0
   15.0967   -0.5901   -1.6066 C   0  0  0  0  0  0
   14.7718   -4.4169   -1.5525 C   0  0  0  0  0  0
   16.0165   -5.1699   -1.1406 C   0  0  0  0  0  0
   14.6721   -5.5625   -0.5709 C   0  0  0  0  0  0
   13.0870   -2.7033   -0.8181 C   0  0  0  0  0  0
   12.2401   -2.6018   -1.7019 O   0  0  0  0  0  0
   10.7876   -2.3848    0.5758 H   0  0  0  0  0  0
   11.5731   -2.4718    2.1432 H   0  0  0  0  0  0
   11.6843   -0.9920    1.1642 H   0  0  0  0  0  0
   15.1170   -2.5502    2.7817 H   0  0  0  0  0  0
   16.0599   -2.8387    0.5541 H   0  0  0  0  0  0
   15.7526   -3.3187   -3.5580 H   0  0  0  0  0  0
   16.5057   -1.5546   -5.0728 H   0  0  0  0  0  0
   16.3454    0.7950   -4.4504 H   0  0  0  0  0  0
   13.1982    1.6139   -2.2811 H   0  0  0  0  0  0
   14.5913    5.3969   -0.9963 H   0  0  0  0  0  0
   17.3864    2.2823   -2.1014 H   0  0  0  0  0  0
   14.7035   -0.3252   -0.6364 H   0  0  0  0  0  0
   14.3831   -4.5537   -2.5639 H   0  0  0  0  0  0
   16.4961   -5.8321   -1.8647 H   0  0  0  0  0  0
   16.7409   -4.6754   -0.4899 H   0  0  0  0  0  0
   14.4588   -5.3418    0.4772 H   0  0  0  0  0  0
   14.2139   -6.4985   -0.8975 H   0  0  0  0  0  0
   13.4246   -2.2817    3.0007 H   0  0  0  0  0  0
  1  2  1  0  0  0
  1 25  1  0  0  0
  1 26  1  0  0  0
  1 27  1  0  0  0
  2  3  1  0  0  0
  2 23  1  0  0  0
  3  4  1  0  0  0
  3  5  2  0  0  0
  4 28  1  0  0  0
  4 42  1  0  0  0
  5  6  1  0  0  0
  5 29  1  0  0  0
  6  7  1  0  0  0
  6 20  1  0  0  0
  6 23  1  0  0  0
  7  8  2  0  0  0
  7 19  1  0  0  0
  8  9  1  0  0  0
  8 30  1  0  0  0
  9 10  2  0  0  0
  9 31  1  0  0  0
 10 11  1  0  0  0
 10 32  1  0  0  0
 11 12  1  0  0  0
 11 19  2  0  0  0
 12 13  2  0  0  0
 12 18  1  0  0  0
 13 14  1  0  0  0
 13 33  1  0  0  0
 14 15  2  0  0  0
 15 16  1  0  0  0
 15 34  1  0  0  0
 16 18  2  0  0  0
 16 17  1  0  0  0
 18 35  1  0  0  0
 19 36  1  0  0  0
 20 21  1  0  0  0
 20 22  1  0  0  0
 20 37  1  0  0  0
 21 22  1  0  0  0
 21 38  1  0  0  0
 21 39  1  0  0  0
 22 40  1  0  0  0
 22 41  1  0  0  0
 23 24  2  0  0  0
M  CHG  1   5   1
M  END
> <s_m_entry_id>
1062

> <s_m_entry_name>
Bace_CAT-17g.1

> <s_m_Source_Path>
C:\Users\yujiethinkpad\Desktop\05A\BACE

> <s_m_Source_File>
Bace_CAT-17g.sdf

> <i_m_Source_File_Index>
1

> <s_m_job_name>
align_ligands_3

> <r_user_dG.exp>
-9.743

> <r_m_Molecular_weight>
325.36876

> <i_phase_Input_Structure_Number>
4

> <i_phase_Structure_Number>
4

> <i_phase_Reference_Structure>
36

> <s_phase_Core_SMARTS>
A=A1AA=[A]A1a2aa(aaa2)-a3aaaaa3

> <s_f3d_frozen_atoms>
24 23 2 3 5 6 7 19 11 10 9 8 12 18 16 15 14 13 24 29 36 32 31 30 35 17 34 33

> <r_phase_Similarity_to_Reference>
0.820811101575872

> <s_phase_Alignment_Method>
snapped core

> <s_phase_Alignment_Reason>


> <s_m_subgroup_title>
align_ligands_3

> <s_m_subgroupid>
align_ligands_3

> <b_m_subgroup_collapsed>
0

$$$$
