CAT-17i
                    3D
 Schrodinger Suite 2021-2.
 45 48  0  0  1  0            999 V2000
   17.3394    4.8171   -1.1109 C   0  0  0  0  0  0
   16.1786    3.9217   -1.4285 C   0  0  0  0  0  0
   14.8768    4.4090   -1.3265 C   0  0  0  0  0  0
   13.8361    3.5444   -1.6892 N   0  0  0  0  0  0
   14.0307    2.2696   -2.0777 C   0  0  0  0  0  0
   15.2943    1.8190   -2.1558 C   0  0  0  0  0  0
   15.4789    0.4180   -2.5002 C   0  0  0  0  0  0
   16.0074    0.0555   -3.7416 C   0  0  0  0  0  0
   16.1081   -1.2923   -4.1022 C   0  0  0  0  0  0
   15.6771   -2.2934   -3.2259 C   0  0  0  0  0  0
   15.1568   -1.9529   -1.9705 C   0  0  0  0  0  0
   14.5743   -3.0162   -1.0535 C   0  0  1  0  0  0
   14.7714   -4.4164   -1.5540 C   0  0  0  0  0  0
   16.0161   -5.1700   -1.1432 C   0  0  0  0  0  0
   14.6719   -5.5630   -0.5734 C   0  0  0  0  0  0
   15.0794   -2.8321    0.2653 N   0  3  0  0  0  0
   14.1019   -2.6231    1.0447 C   0  0  0  0  0  0
   14.1861   -2.4823    2.3656 N   0  0  0  0  0  0
   12.8825   -2.5349    0.4671 N   0  0  0  0  0  0
   11.6744   -2.0785    1.1315 C   0  0  0  0  0  0
   13.0870   -2.7033   -0.8181 C   0  0  0  0  0  0
   12.2401   -2.6018   -1.7019 O   0  0  0  0  0  0
   15.0967   -0.5901   -1.6066 C   0  0  0  0  0  0
   16.3883    2.6359   -1.9126 C   0  0  0  0  0  0
   18.2704    4.2666   -1.2458 H   0  0  0  0  0  0
   17.3268    5.6788   -1.7782 H   0  0  0  0  0  0
   17.2644    5.1565   -0.0778 H   0  0  0  0  0  0
   14.6905    5.4285   -1.0140 H   0  0  0  0  0  0
   13.1254    1.6974   -2.2115 H   0  0  0  0  0  0
   16.3398    0.8010   -4.4466 H   0  0  0  0  0  0
   16.4903   -1.5746   -5.0707 H   0  0  0  0  0  0
   15.7613   -3.2944   -3.6053 H   0  0  0  0  0  0
   14.3825   -4.5522   -2.5654 H   0  0  0  0  0  0
   16.4954   -5.8315   -1.8681 H   0  0  0  0  0  0
   16.7409   -4.6763   -0.4922 H   0  0  0  0  0  0
   14.4589   -5.3433    0.4749 H   0  0  0  0  0  0
   14.2135   -6.4986   -0.9009 H   0  0  0  0  0  0
   16.0607   -2.9906    0.5015 H   0  0  0  0  0  0
   15.1170   -2.5502    2.7817 H   0  0  0  0  0  0
   10.7876   -2.3848    0.5758 H   0  0  0  0  0  0
   11.5731   -2.4718    2.1432 H   0  0  0  0  0  0
   11.6843   -0.9920    1.1642 H   0  0  0  0  0  0
   14.6696   -0.3101   -0.6542 H   0  0  0  0  0  0
   17.3931    2.2832   -2.0704 H   0  0  0  0  0  0
   13.4246   -2.2817    3.0007 H   0  0  0  0  0  0
  1  2  1  0  0  0
  1 25  1  0  0  0
  1 26  1  0  0  0
  1 27  1  0  0  0
  2  3  2  0  0  0
  2 24  1  0  0  0
  3  4  1  0  0  0
  3 28  1  0  0  0
  4  5  2  0  0  0
  5  6  1  0  0  0
  5 29  1  0  0  0
  6  7  1  0  0  0
  6 24  2  0  0  0
  7  8  2  0  0  0
  7 23  1  0  0  0
  8  9  1  0  0  0
  8 30  1  0  0  0
  9 10  2  0  0  0
  9 31  1  0  0  0
 10 11  1  0  0  0
 10 32  1  0  0  0
 11 12  1  0  0  0
 11 23  2  0  0  0
 12 13  1  0  0  0
 12 16  1  0  0  0
 12 21  1  0  0  0
 13 14  1  0  0  0
 13 15  1  0  0  0
 13 33  1  0  0  0
 14 15  1  0  0  0
 14 34  1  0  0  0
 14 35  1  0  0  0
 15 36  1  0  0  0
 15 37  1  0  0  0
 16 17  2  0  0  0
 16 38  1  0  0  0
 17 18  1  0  0  0
 17 19  1  0  0  0
 18 39  1  0  0  0
 18 45  1  0  0  0
 19 20  1  0  0  0
 19 21  1  0  0  0
 20 40  1  0  0  0
 20 41  1  0  0  0
 20 42  1  0  0  0
 21 22  2  0  0  0
 23 43  1  0  0  0
 24 44  1  0  0  0
M  CHG  1  16   1
M  END
> <s_m_entry_id>
1064

> <s_m_entry_name>
Bace_CAT-17i.1

> <s_m_Source_Path>
C:\Users\yujiethinkpad\Desktop\05A\BACE

> <s_m_Source_File>
Bace_CAT-17i.sdf

> <i_m_Source_File_Index>
1

> <s_m_job_name>
align_ligands_3

> <r_user_dG.exp>
-9.473

> <r_m_Molecular_weight>
321.40542

> <i_phase_Input_Structure_Number>
6

> <i_phase_Structure_Number>
6

> <i_phase_Reference_Structure>
36

> <s_phase_Core_SMARTS>
A=A1AA=[A]A1a2aa(aaa2)-a3aaaaa3

> <s_f3d_frozen_atoms>
22 21 19 17 16 12 11 23 7 8 9 10 6 24 2 3 4 5 22 38 43 30 31 32 44 28 29

> <r_phase_Similarity_to_Reference>
0.835589006925118

> <s_phase_Alignment_Method>
snapped core

> <s_phase_Alignment_Reason>


> <s_m_subgroup_title>
align_ligands_3

> <s_m_subgroupid>
align_ligands_3

> <b_m_subgroup_collapsed>
0

$$$$
