1a
                    3D
 Schrodinger Suite 2021-2.
 52 54  0  0  1  0            999 V2000
   18.0767  -13.1253   21.6991 N   0  0  0  0  0  0
   17.8772  -11.8169   21.0383 C   0  0  2  0  0  0
   17.2506  -13.6411   22.6451 C   0  0  0  0  0  0
   16.2595  -13.0286   23.0448 O   0  0  0  0  0  0
   16.4719  -11.6292   20.4362 C   0  0  0  0  0  0
   15.9363  -12.5502   19.8120 O   0  0  0  0  0  0
   18.9468  -11.7368   19.9367 C   0  0  0  0  0  0
   17.5270  -15.0255   23.2725 C   0  0  2  0  0  0
   15.8881  -10.4379   20.6441 N   0  0  0  0  0  0
   19.9988  -12.7705   20.2975 C   0  0  0  0  0  0
   16.2597  -15.7789   23.3621 N   0  3  0  0  0  0
   18.1521  -14.9219   24.6880 C   0  0  0  0  0  0
   14.5575  -10.0585   20.1976 C   0  0  0  0  0  0
   19.3009  -13.7664   21.2189 C   0  0  0  0  0  0
   19.5808  -14.4017   24.7643 C   0  0  0  0  0  0
   13.4840  -10.4101   21.2035 C   0  0  0  0  0  0
   19.8524  -13.1444   25.3455 C   0  0  0  0  0  0
   13.0525   -9.4713   22.1612 C   0  0  0  0  0  0
   21.1669  -12.6481   25.3992 C   0  0  0  0  0  0
   12.0357   -9.8103   23.0760 C   0  0  0  0  0  0
   22.2275  -13.4142   24.8829 C   0  0  0  0  0  0
   11.4526  -11.0971   23.0449 C   0  0  0  0  0  0
   21.9712  -14.6835   24.3298 C   0  0  0  0  0  0
   11.9017  -12.0388   22.0953 C   0  0  0  0  0  0
   20.6529  -15.1800   24.2770 C   0  0  0  0  0  0
   12.9089  -11.6950   21.1842 C   0  0  0  0  0  0
   18.0654  -11.0420   21.7851 H   0  0  0  0  0  0
   19.3741  -10.7376   19.8640 H   0  0  0  0  0  0
   18.5335  -11.9826   18.9548 H   0  0  0  0  0  0
   18.1789  -15.6178   22.6332 H   0  0  0  0  0  0
   16.4122   -9.7415   21.1655 H   0  0  0  0  0  0
   20.8122  -12.2843   20.8422 H   0  0  0  0  0  0
   20.4355  -13.2505   19.4225 H   0  0  0  0  0  0
   15.8933  -15.8925   22.4157 H   0  0  0  0  0  0
   16.3934  -16.6743   23.7889 H   0  0  0  0  0  0
   18.1582  -15.9090   25.1532 H   0  0  0  0  0  0
   17.5171  -14.3074   25.3291 H   0  0  0  0  0  0
   14.5400   -8.9830   20.0247 H   0  0  0  0  0  0
   14.3244  -10.5287   19.2390 H   0  0  0  0  0  0
   19.9657  -14.0412   22.0311 H   0  0  0  0  0  0
   19.0438  -14.6716   20.6634 H   0  0  0  0  0  0
   19.0539  -12.5555   25.7633 H   0  0  0  0  0  0
   13.5002   -8.4898   22.1970 H   0  0  0  0  0  0
   21.3581  -11.6824   25.8440 H   0  0  0  0  0  0
   11.7087   -9.0822   23.8043 H   0  0  0  0  0  0
   23.2388  -13.0356   24.9284 H   0  0  0  0  0  0
   22.7876  -15.2791   23.9488 H   0  0  0  0  0  0
   11.3843  -13.2737   22.0091 F   0  0  0  0  0  0
   20.4695  -16.1531   23.8461 H   0  0  0  0  0  0
   13.2343  -12.4291   20.4596 H   0  0  0  0  0  0
   10.6704  -11.3541   23.7379 H   0  0  0  0  0  0
   15.5789  -15.2190   23.8711 H   0  0  0  0  0  0
  1  2  1  0  0  0
  1 14  1  0  0  0
  1  3  1  0  0  0
  2  5  1  0  0  0
  2  7  1  0  0  0
  2 27  1  0  0  0
  3  8  1  0  0  0
  3  4  2  0  0  0
  5  6  2  0  0  0
  5  9  1  0  0  0
  7 10  1  0  0  0
  7 28  1  0  0  0
  7 29  1  0  0  0
  8 11  1  0  0  0
  8 12  1  0  0  0
  8 30  1  0  0  0
  9 13  1  0  0  0
  9 31  1  0  0  0
 10 14  1  0  0  0
 10 32  1  0  0  0
 10 33  1  0  0  0
 11 34  1  0  0  0
 11 35  1  0  0  0
 11 52  1  0  0  0
 12 15  1  0  0  0
 12 36  1  0  0  0
 12 37  1  0  0  0
 13 16  1  0  0  0
 13 38  1  0  0  0
 13 39  1  0  0  0
 14 40  1  0  0  0
 14 41  1  0  0  0
 15 17  1  0  0  0
 15 25  2  0  0  0
 16 18  1  0  0  0
 16 26  2  0  0  0
 17 19  2  0  0  0
 17 42  1  0  0  0
 18 20  2  0  0  0
 18 43  1  0  0  0
 19 21  1  0  0  0
 19 44  1  0  0  0
 20 22  1  0  0  0
 20 45  1  0  0  0
 21 23  2  0  0  0
 21 46  1  0  0  0
 22 24  2  0  0  0
 22 51  1  0  0  0
 23 25  1  0  0  0
 23 47  1  0  0  0
 24 26  1  0  0  0
 24 48  1  0  0  0
 25 49  1  0  0  0
 26 50  1  0  0  0
M  CHG  1  11   1
M  END
> <s_m_entry_id>
606

> <s_m_entry_name>
Thrombin_1a.1

> <s_m_Source_Path>
C:\Users\yujiethinkpad\Desktop\05A\Thrombin

> <s_m_Source_File>
Thrombin_1a.sdf

> <i_m_Source_File_Index>
1

> <s_i_glide_gridfile>
glide-grid_Thro

> <s_lp_Force_Field>
S-OPLS

> <s_lp_Variant>
1a-1

> <r_i_docking_score>
-10.543963167319

> <r_i_glide_ecoul>
-14.6332960128784

> <r_i_glide_einternal>
-1.67784452997921e-08

> <r_i_glide_emodel>
-105.071906813018

> <r_i_glide_energy>
-58.7657957077026

> <r_i_glide_erotb>
1.12469017291469

> <r_i_glide_esite>
-0.0183367086809899

> <r_i_glide_evdw>
-44.1324996948242

> <r_i_glide_gscore>
-10.715963167319

> <r_i_glide_hbond>
-0.864

> <r_i_glide_ligand_efficiency>
-0.390517154345147

> <r_i_glide_ligand_efficiency_ln>
-2.45446079453343

> <r_i_glide_ligand_efficiency_sa>
-1.17155146174836

> <r_i_glide_lipo>
-4.78573561560667

> <r_i_glide_metal>
0

> <r_i_glide_rewards>
-1.77096162927302

> <r_lp_Energy>
37.606602

> <i_i_glide_confnum>
6

> <i_i_glide_lignum>
15

> <i_i_glide_posenum>
8

> <i_i_glide_rotatable_bonds>
8

> <i_lp_mmshare_version>
54117

> <b_lp_Chiralities_Consistent>
1

> <r_i_glide_eff_state_penalty>
0.172

> <s_epik_input>
W2NIXTFbY0hdW2NIXVtjSF1bY0hdYzFbQ0gyXVtDQEBIXShbTkgyXSlDKD1PKU4yW0NAQEhdKFtDSDJdW0NIMl1bQ0gyXTIpQyg9TylbTkhdW0NIMl1jM1tjSF1bY0hdW2NIXWMoRilbY0hdMw==

> <s_epik_cmdline>
J2VwaWtfcHl0aG9uJywgJy1waCcsICc3LjAnLCAnLXRuJywgJzgnLCAnLW1hJywgJzUwMCcsICctaW1hZScsICc8aW5maWxlLm1hZT4nLCAnLW9tYWUnLCAnPG91dGZpbGUubWFlPic=

> <r_epik_Ionization_Penalty>
  0.1825

> <r_epik_Ionization_Penalty_Charging>
  0.1825

> <r_epik_Ionization_Penalty_Neutral>
  0.0000

> <r_epik_State_Penalty>
  0.1720

> <r_epik_Charging_Adjusted_Penalty>
0.354512576374698

> <i_epik_Tot_Q>
1

> <i_epik_Tot_abs_Q>
1

> <s_m_source_file>
ligprep_Thro.maegz

> <i_m_source_file_index>
8

> <i_f3d_flags>
0

> <s_m_job_name>
glide-dock_SP_Thro_other

> <r_user_dG.exp>
-7.48

> <r_m_Molecular_weight>
370.4507

> <r_i_glide_rmsd>
0.0271197839507902

> <s_glide_core_constrain_type>
snapped_core_restrain

> <s_m_subgroup_title>
glide-dock_SP_Thro_other_lib1

> <s_m_subgroupid>
glide-dock_SP_Thro_other_lib1

> <b_m_subgroup_collapsed>
0

$$$$
