CHEMBL3402761_1
                    3D
 Schrodinger Suite 2020-3.
 63 67  0  0  1  0            999 V2000
   20.6270   29.5265   59.9403 O   0  0  0  0  0  0
   20.1829   29.3653   58.8001 C   0  0  0  0  0  0
   19.8506   28.0457   58.2897 C   0  0  0  0  0  0
   19.3754   27.8491   57.0403 C   0  0  0  0  0  0
   19.1767   28.9531   56.1176 C   0  0  0  0  0  0
   19.4497   30.1369   56.5714 N   0  0  0  0  0  0
   19.9289   30.3529   57.8691 N   0  0  0  0  0  0
   20.2272   31.7541   58.2201 C   0  0  0  0  0  0
   21.6335   32.2198   57.8298 C   0  0  0  0  0  0
   22.6557   32.2345   58.7758 C   0  0  0  0  0  0
   23.9255   32.6947   58.4300 C   0  0  0  0  0  0
   24.1809   33.1262   57.1291 C   0  0  0  0  0  0
   23.1796   33.1186   56.1459 C   0  0  0  0  0  0
   21.8982   32.6757   56.5339 C   0  0  0  0  0  0
   23.4866   33.4885   54.7188 C   0  0  0  0  0  0
   24.7735   33.7939   54.3763 N   0  0  0  0  0  0
   25.0455   33.9261   53.0474 C   0  0  0  0  0  0
   24.0793   33.7512   52.0531 C   0  0  0  0  0  0
   24.4620   33.8044   50.7208 O   0  0  0  0  0  0
   23.5165   33.5647   49.6672 C   0  0  0  0  0  0
   22.8204   32.1758   49.7068 C   0  0  0  0  0  0
   23.1410   31.3200   48.5625 N   0  0  0  0  0  0
   22.2179   30.1779   48.5055 C   0  0  0  0  0  0
   22.5690   29.2456   47.3242 C   0  0  0  0  0  0
   23.9278   28.8247   47.3937 O   0  0  0  0  0  0
   24.8503   29.9097   47.4537 C   0  0  0  0  0  0
   24.5319   30.8525   48.6318 C   0  0  0  0  0  0
   22.7764   33.5181   52.5153 C   0  0  0  0  0  0
   22.4655   33.3787   53.8269 N   0  0  0  0  0  0
   18.7029   28.7100   54.7362 C   0  0  0  0  0  0
   18.9902   29.6554   53.7347 C   0  0  0  0  0  0
   18.5804   29.4532   52.4203 C   0  0  0  0  0  0
   17.8711   28.3033   52.0789 C   0  0  0  0  0  0
   17.5750   27.3490   53.0531 C   0  0  0  0  0  0
   17.9978   27.5468   54.3733 C   0  0  0  0  0  0
   16.8353   26.1529   52.6794 C   0  0  0  0  0  0
   16.2471   25.2029   52.3739 N   0  0  0  0  0  0
   20.0054   27.1985   58.9415 H   0  0  0  0  0  0
   19.1747   26.8274   56.7472 H   0  0  0  0  0  0
   20.0624   31.9423   59.2831 H   0  0  0  0  0  0
   19.5002   32.4009   57.7262 H   0  0  0  0  0  0
   22.4704   31.8955   59.7838 H   0  0  0  0  0  0
   24.7161   32.7081   59.1652 H   0  0  0  0  0  0
   25.1811   33.4579   56.8889 H   0  0  0  0  0  0
   21.0942   32.6452   55.8119 H   0  0  0  0  0  0
   26.0725   34.1248   52.7752 H   0  0  0  0  0  0
   24.0621   33.6894   48.7289 H   0  0  0  0  0  0
   22.7678   34.3543   49.6289 H   0  0  0  0  0  0
   21.7449   32.3447   49.7367 H   0  0  0  0  0  0
   23.0711   31.6427   50.6256 H   0  0  0  0  0  0
   22.2387   29.6086   49.4364 H   0  0  0  0  0  0
   21.1943   30.5352   48.3859 H   0  0  0  0  0  0
   21.9285   28.3638   47.3407 H   0  0  0  0  0  0
   22.3764   29.7434   46.3695 H   0  0  0  0  0  0
   25.8514   29.5045   47.5698 H   0  0  0  0  0  0
   24.8528   30.4604   46.5109 H   0  0  0  0  0  0
   24.7139   30.3366   49.5754 H   0  0  0  0  0  0
   25.2195   31.6992   48.6085 H   0  0  0  0  0  0
   21.9441   33.3882   51.8472 H   0  0  0  0  0  0
   19.5448   30.5542   53.9657 H   0  0  0  0  0  0
   18.8169   30.1842   51.6597 H   0  0  0  0  0  0
   17.5652   28.1587   51.0520 H   0  0  0  0  0  0
   17.7611   26.7954   55.1128 H   0  0  0  0  0  0
  1  2  2  0  0  0
  2  3  1  0  0  0
  2  7  1  0  0  0
  3  4  2  0  0  0
  3 38  1  0  0  0
  4  5  1  0  0  0
  4 39  1  0  0  0
  5  6  2  0  0  0
  5 30  1  0  0  0
  6  7  1  0  0  0
  7  8  1  0  0  0
  8  9  1  0  0  0
  8 40  1  0  0  0
  8 41  1  0  0  0
  9 10  2  0  0  0
  9 14  1  0  0  0
 10 11  1  0  0  0
 10 42  1  0  0  0
 11 12  2  0  0  0
 11 43  1  0  0  0
 12 13  1  0  0  0
 12 44  1  0  0  0
 13 14  2  0  0  0
 13 15  1  0  0  0
 14 45  1  0  0  0
 15 16  2  0  0  0
 15 29  1  0  0  0
 16 17  1  0  0  0
 17 18  2  0  0  0
 17 46  1  0  0  0
 18 19  1  0  0  0
 18 28  1  0  0  0
 19 20  1  0  0  0
 20 21  1  0  0  0
 20 47  1  0  0  0
 20 48  1  0  0  0
 21 22  1  0  0  0
 21 49  1  0  0  0
 21 50  1  0  0  0
 22 23  1  0  0  0
 22 27  1  0  0  0
 23 24  1  0  0  0
 23 51  1  0  0  0
 23 52  1  0  0  0
 24 25  1  0  0  0
 24 53  1  0  0  0
 24 54  1  0  0  0
 25 26  1  0  0  0
 26 27  1  0  0  0
 26 55  1  0  0  0
 26 56  1  0  0  0
 27 57  1  0  0  0
 27 58  1  0  0  0
 28 29  2  0  0  0
 28 59  1  0  0  0
 30 31  2  0  0  0
 30 35  1  0  0  0
 31 32  1  0  0  0
 31 60  1  0  0  0
 32 33  2  0  0  0
 32 61  1  0  0  0
 33 34  1  0  0  0
 33 62  1  0  0  0
 34 35  2  0  0  0
 34 36  1  0  0  0
 35 63  1  0  0  0
 36 37  3  0  0  0
M  END
> <s_user_Name>
CHEMBL3402761_1

> <IC50[nM]>
1

$$$$
