@<TRIPOS>MOLECULE
CHEMBL3402764_90
57   59    1
SMALL
USER_CHARGES


@<TRIPOS>ATOM
      1 C1         24.4983   32.6426   47.4000 C.3       1 UNK         0.0000 
      2 N2         25.8477   33.1265   47.9776 N.4       1 UNK         0.0000 
      3 C3         26.7282   33.7516   46.8757 C.3       1 UNK         0.0000 
      4 C4         25.7070   34.0817   49.1846 C.3       1 UNK         0.0000 
      5 C5         24.9669   33.4120   50.3525 C.3       1 UNK         0.0000 
      6 C6         25.0476   34.2680   51.6221 C.3       1 UNK         0.0000 
      7 O7         24.1442   33.7553   52.5943 O.3       1 UNK         0.0000 
      8 C8         24.4004   33.8646   53.9094 C.2       1 UNK         0.0000 
      9 O9         25.4439   34.3239   54.3765 O.2       1 UNK         0.0000 
     10 N10        23.2956   33.3782   54.5987 N.am      1 UNK         0.0000 
     11 C11        23.1427   33.0843   55.9651 C.ar      1 UNK         0.0000 
     12 C12        24.1938   33.1130   56.8977 C.ar      1 UNK         0.0000 
     13 C13        23.9701   32.7046   58.2133 C.ar      1 UNK         0.0000 
     14 C14        22.7094   32.2562   58.6081 C.ar      1 UNK         0.0000 
     15 C15        21.6523   32.2304   57.6940 C.ar      1 UNK         0.0000 
     16 C16        20.2620   31.7774   58.1408 C.3       1 UNK         0.0000 
     17 N17        19.9517   30.3721   57.8100 N.pl3     1 UNK         0.0000 
     18 N18        19.4515   30.1430   56.5234 N.2       1 UNK         0.0000 
     19 C19        19.1719   28.9566   56.0882 C.ar      1 UNK         0.0000 
     20 C20        19.4049   27.8574   57.0122 C.ar      1 UNK         0.0000 
     21 C21        19.8897   28.0688   58.2559 C.ar      1 UNK         0.0000 
     22 C22        20.2101   29.3962   58.7559 C.ar      1 UNK         0.0000 
     23 O23        20.6471   29.5714   59.8944 O.2       1 UNK         0.0000 
     24 C24        18.6411   28.7040   54.7248 C.ar      1 UNK         0.0000 
     25 C25        17.9457   27.5247   54.4124 C.ar      1 UNK         0.0000 
     26 C26        17.4541   27.3084   53.1266 C.ar      1 UNK         0.0000 
     27 C27        17.6594   28.2659   52.1380 C.ar      1 UNK         0.0000 
     28 F28        17.1816   28.0564   50.8899 F         1 UNK         0.0000 
     29 C29        18.3519   29.4381   52.4270 C.ar      1 UNK         0.0000 
     30 C30        18.8414   29.6559   53.7125 C.ar      1 UNK         0.0000 
     31 C31        21.8740   32.6562   56.3786 C.ar      1 UNK         0.0000 
     32 H32        23.9868   32.0683   48.1732 H         1 UNK         0.0000 
     33 H33        24.7173   32.0099   46.5367 H         1 UNK         0.0000 
     34 H34        23.9268   33.5257   47.1104 H         1 UNK         0.0000 
     35 H35        27.6879   34.0173   47.3235 H         1 UNK         0.0000 
     36 H36        26.2116   34.6326   46.4901 H         1 UNK         0.0000 
     37 H37        26.8650   32.9982   46.0986 H         1 UNK         0.0000 
     38 H38        26.7316   34.3260   49.4693 H         1 UNK         0.0000 
     39 H39        25.2033   34.9796   48.8228 H         1 UNK         0.0000 
     40 H40        23.9164   33.2654   50.0932 H         1 UNK         0.0000 
     41 H41        25.3859   32.4241   50.5579 H         1 UNK         0.0000 
     42 H42        26.0764   34.2786   51.9887 H         1 UNK         0.0000 
     43 H43        24.7726   35.2996   51.4025 H         1 UNK         0.0000 
     44 H44        22.4979   33.1553   54.0205 H         1 UNK         0.0000 
     45 H45        25.1884   33.4288   56.6266 H         1 UNK         0.0000 
     46 H46        24.7862   32.7203   58.9219 H         1 UNK         0.0000 
     47 H47        22.5539   31.9248   59.6252 H         1 UNK         0.0000 
     48 H48        20.1375   31.9754   59.2077 H         1 UNK         0.0000 
     49 H49        19.5167   32.4201   57.6663 H         1 UNK         0.0000 
     50 H50        19.2194   26.8341   56.7260 H         1 UNK         0.0000 
     51 H51        20.0661   27.2285   58.9091 H         1 UNK         0.0000 
     52 H52        17.7647   26.7541   55.1486 H         1 UNK         0.0000 
     53 H53        16.9208   26.3981   52.8933 H         1 UNK         0.0000 
     54 H54        18.5097   30.1723   51.6504 H         1 UNK         0.0000 
     55 H55        19.3813   30.5702   53.9102 H         1 UNK         0.0000 
     56 H56        21.0578   32.6204   55.6701 H         1 UNK         0.0000 
     57 H57        26.3475   32.3089   48.3217 H         1 UNK         0.0000 
@<TRIPOS>BOND
     1    1    2 1    
     2    1   32 1    
     3    1   33 1    
     4    1   34 1    
     5    2    3 1    
     6    2    4 1    
     7    2   57 1    
     8    3   35 1    
     9    3   36 1    
    10    3   37 1    
    11    4    5 1    
    12    4   38 1    
    13    4   39 1    
    14    5    6 1    
    15    5   40 1    
    16    5   41 1    
    17    6    7 1    
    18    6   42 1    
    19    6   43 1    
    20    7    8 1    
    21    8    9 2    
    22    8   10 am   BACKBONE|DICT|INTERRES
    23   10   11 1    
    24   10   44 1    
    25   11   12 ar   
    26   11   31 ar   
    27   12   13 ar   
    28   12   45 1    
    29   13   14 ar   
    30   13   46 1    
    31   14   15 ar   
    32   14   47 1    
    33   15   16 1    
    34   15   31 ar   
    35   16   17 1    
    36   16   48 1    
    37   16   49 1    
    38   17   18 ar   
    39   17   22 ar   
    40   18   19 ar   
    41   19   20 ar   
    42   19   24 1    
    43   20   21 ar   
    44   20   50 1    
    45   21   22 ar   
    46   21   51 1    
    47   22   23 2    
    48   24   25 ar   
    49   24   30 ar   
    50   25   26 ar   
    51   25   52 1    
    52   26   27 ar   
    53   26   53 1    
    54   27   28 1    
    55   27   29 ar   
    56   29   30 ar   
    57   29   54 1    
    58   30   55 1    
    59   31   56 1    
@<TRIPOS>SUBSTRUCTURE
     1 UNK         1 GROUP             0       ****    0 ROOT    
