@<TRIPOS>MOLECULE
CHEMBL3402765_11-charged-pKa-8.1
62   65    1
SMALL
USER_CHARGES


@<TRIPOS>ATOM
      1 F1         17.2816   31.0754   52.1112 F         1 UNK         0.0000 
      2 C2         17.5663   29.9576   52.8176 C.ar      1 UNK         0.0000 
      3 C3         17.2204   28.7069   52.3169 C.ar      1 UNK         0.0000 
      4 C4         17.5045   27.5609   53.0572 C.ar      1 UNK         0.0000 
      5 F5         17.1492   26.3482   52.5773 F         1 UNK         0.0000 
      6 C6         18.1372   27.6641   54.2964 C.ar      1 UNK         0.0000 
      7 C7         18.4805   28.9202   54.8291 C.ar      1 UNK         0.0000 
      8 C8         18.1932   30.0628   54.0561 C.ar      1 UNK         0.0000 
      9 C9         19.0915   29.0865   56.1754 C.ar      1 UNK         0.0000 
     10 N10        19.4480   30.2440   56.6384 N.2       1 UNK         0.0000 
     11 N11        19.9872   30.4154   57.9169 N.pl3     1 UNK         0.0000 
     12 C12        20.3516   31.7988   58.2814 C.3       1 UNK         0.0000 
     13 C13        21.7041   32.2478   57.7248 C.ar      1 UNK         0.0000 
     14 C14        22.8361   32.2592   58.5463 C.ar      1 UNK         0.0000 
     15 C15        24.0614   32.6950   58.0440 C.ar      1 UNK         0.0000 
     16 C16        24.1708   33.1134   56.7180 C.ar      1 UNK         0.0000 
     17 C17        23.0463   33.1012   55.8772 C.ar      1 UNK         0.0000 
     18 N18        23.0717   33.4390   54.5115 N.am      1 UNK         0.0000 
     19 C19        24.1496   33.7673   53.6964 C.2       1 UNK         0.0000 
     20 O20        25.3229   33.9268   54.0317 O.2       1 UNK         0.0000 
     21 O21        23.6922   33.9229   52.4360 O.3       1 UNK         0.0000 
     22 C22        24.5555   34.3241   51.3706 C.3       1 UNK         0.0000 
     23 C23        24.9605   33.1210   50.5062 C.3       1 UNK         0.0000 
     24 C24        23.7698   32.4740   49.7769 C.3       1 UNK         0.0000 
     25 N25        24.2474   31.2754   48.9228 N.4       1 UNK         0.0000 
     26 C26        24.9826   31.7341   47.6405 C.3       1 UNK         0.0000 
     27 C27        25.3999   30.4887   46.8374 C.3       1 UNK         0.0000 
     28 O28        24.2725   29.6655   46.5504 O.3       1 UNK         0.0000 
     29 C29        23.5838   29.1848   47.7005 C.3       1 UNK         0.0000 
     30 C30        23.0596   30.3553   48.5561 C.3       1 UNK         0.0000 
     31 C31        21.8149   32.6843   56.3986 C.ar      1 UNK         0.0000 
     32 C32        20.2116   29.4040   58.8272 C.ar      1 UNK         0.0000 
     33 O33        20.6467   29.5340   59.9745 O.2       1 UNK         0.0000 
     34 C34        19.8462   28.1043   58.2906 C.ar      1 UNK         0.0000 
     35 C35        19.3150   27.9488   57.0557 C.ar      1 UNK         0.0000 
     36 H36        16.7228   28.6247   51.3638 H         1 UNK         0.0000 
     37 H37        18.3289   26.7384   54.8198 H         1 UNK         0.0000 
     38 H38        18.4373   31.0512   54.4133 H         1 UNK         0.0000 
     39 H39        20.3352   31.9552   59.3633 H         1 UNK         0.0000 
     40 H40        19.5785   32.4740   57.9083 H         1 UNK         0.0000 
     41 H41        22.7680   31.9276   59.5733 H         1 UNK         0.0000 
     42 H42        24.9369   32.7045   58.6794 H         1 UNK         0.0000 
     43 H43        25.1406   33.4331   56.3730 H         1 UNK         0.0000 
     44 H44        22.1815   33.4019   54.0390 H         1 UNK         0.0000 
     45 H45        25.4474   34.8305   51.7432 H         1 UNK         0.0000 
     46 H46        24.0329   35.0555   50.7548 H         1 UNK         0.0000 
     47 H47        25.4479   32.3780   51.1334 H         1 UNK         0.0000 
     48 H48        25.7125   33.4630   49.7972 H         1 UNK         0.0000 
     49 H49        23.2443   33.1592   49.1097 H         1 UNK         0.0000 
     50 H50        23.0627   32.0705   50.5030 H         1 UNK         0.0000 
     51 H51        25.8476   32.3258   47.9311 H         1 UNK         0.0000 
     52 H52        24.2873   32.3578   47.0764 H         1 UNK         0.0000 
     53 H53        26.1483   29.9176   47.3875 H         1 UNK         0.0000 
     54 H54        25.8649   30.7828   45.8963 H         1 UNK         0.0000 
     55 H55        24.2465   28.5388   48.2809 H         1 UNK         0.0000 
     56 H56        22.7528   28.5585   47.3733 H         1 UNK         0.0000 
     57 H57        22.5999   30.0141   49.4822 H         1 UNK         0.0000 
     58 H58        22.3468   30.9683   48.0008 H         1 UNK         0.0000 
     59 H59        20.9378   32.6688   55.7673 H         1 UNK         0.0000 
     60 H60        20.0003   27.2406   58.9192 H         1 UNK         0.0000 
     61 H61        19.0693   26.9394   56.7608 H         1 UNK         0.0000 
     62 H62        24.8973   30.7375   49.4781 H         1 UNK         0.0000 
@<TRIPOS>BOND
     1    1    2 1    
     2    2    3 ar   
     3    2    8 ar   
     4    3    4 ar   
     5    3   36 1    
     6    4    5 1    
     7    4    6 ar   
     8    6    7 ar   
     9    6   37 1    
    10    7    8 ar   
    11    7    9 1    
    12    8   38 1    
    13    9   10 ar   
    14    9   35 ar   
    15   10   11 ar   
    16   11   12 1    
    17   11   32 ar   
    18   12   13 1    
    19   12   39 1    
    20   12   40 1    
    21   13   14 ar   
    22   13   31 ar   
    23   14   15 ar   
    24   14   41 1    
    25   15   16 ar   
    26   15   42 1    
    27   16   17 ar   
    28   16   43 1    
    29   17   18 1    
    30   17   31 ar   
    31   18   19 am   BACKBONE|DICT|INTERRES
    32   18   44 1    
    33   19   20 2    
    34   19   21 1    
    35   21   22 1    
    36   22   23 1    
    37   22   45 1    
    38   22   46 1    
    39   23   24 1    
    40   23   47 1    
    41   23   48 1    
    42   24   25 1    
    43   24   49 1    
    44   24   50 1    
    45   25   26 1    
    46   25   30 1    
    47   25   62 1    
    48   26   27 1    
    49   26   51 1    
    50   26   52 1    
    51   27   28 1    
    52   27   53 1    
    53   27   54 1    
    54   28   29 1    
    55   29   30 1    
    56   29   55 1    
    57   29   56 1    
    58   30   57 1    
    59   30   58 1    
    60   31   59 1    
    61   32   33 2    
    62   32   34 ar   
    63   34   35 ar   
    64   34   60 1    
    65   35   61 1    
@<TRIPOS>SUBSTRUCTURE
     1 UNK         1 GROUP             0       ****    0 ROOT    
