CHEMBL3402757_6.5
                    3D
 Schrodinger Suite 2020-3.
 61 64  0  0  1  0            999 V2000
   25.3721   31.2219   46.6644 C   0  0  0  0  0  0
   24.2292   31.6762   47.5975 N   0  3  0  0  0  0
   24.1603   30.8253   48.8811 C   0  0  0  0  0  0
   24.1810   33.2089   47.8252 C   0  0  0  0  0  0
   25.4044   33.8076   48.5650 C   0  0  0  0  0  0
   25.4494   33.6181   50.0927 C   0  0  0  0  0  0
   24.1499   33.8272   50.6358 O   0  0  0  0  0  0
   23.9715   33.6722   51.9928 C   0  0  0  0  0  0
   24.9553   33.9009   52.9691 C   0  0  0  0  0  0
   24.7187   33.7452   54.2980 N   0  0  0  0  0  0
   23.4638   33.3512   54.6606 C   0  0  0  0  0  0
   22.4436   33.1319   53.7852 N   0  0  0  0  0  0
   22.7129   33.2993   52.4668 C   0  0  0  0  0  0
   23.2073   33.0414   56.1083 C   0  0  0  0  0  0
   24.2462   33.0690   57.0560 C   0  0  0  0  0  0
   24.0331   32.6782   58.3749 C   0  0  0  0  0  0
   22.7722   32.2476   58.7759 C   0  0  0  0  0  0
   21.7116   32.2359   57.8728 C   0  0  0  0  0  0
   20.3201   31.8105   58.3284 C   0  0  0  0  0  0
   19.9672   30.4340   57.9355 N   0  0  0  0  0  0
   19.4198   30.2849   56.6582 N   0  0  0  0  0  0
   19.0471   29.1359   56.1903 C   0  0  0  0  0  0
   19.2945   27.9828   57.0432 C   0  0  0  0  0  0
   19.8472   28.1166   58.2711 C   0  0  0  0  0  0
   20.2070   29.4083   58.8283 C   0  0  0  0  0  0
   20.6472   29.5276   59.9744 O   0  0  0  0  0  0
   18.3925   28.9878   54.8648 C   0  0  0  0  0  0
   18.2472   27.7417   54.2309 C   0  0  0  0  0  0
   17.5890   27.6339   53.0045 C   0  0  0  0  0  0
   17.0562   28.7685   52.3958 C   0  0  0  0  0  0
   17.1910   30.0122   53.0059 C   0  0  0  0  0  0
   16.6720   31.1185   52.4235 F   0  0  0  0  0  0
   17.8573   30.1210   54.2252 C   0  0  0  0  0  0
   21.9312   32.6478   56.5553 C   0  0  0  0  0  0
   25.3080   31.8113   45.7470 H   0  0  0  0  0  0
   25.2244   30.1595   46.4546 H   0  0  0  0  0  0
   26.3194   31.3882   47.1758 H   0  0  0  0  0  0
   23.4080   31.2663   49.5382 H   0  0  0  0  0  0
   25.1453   30.8109   49.3438 H   0  0  0  0  0  0
   23.8709   29.8206   48.5750 H   0  0  0  0  0  0
   24.0971   33.6212   46.8176 H   0  0  0  0  0  0
   23.2361   33.4125   48.3360 H   0  0  0  0  0  0
   26.3385   33.4600   48.1276 H   0  0  0  0  0  0
   25.3938   34.8815   48.3778 H   0  0  0  0  0  0
   25.8116   32.6248   50.3571 H   0  0  0  0  0  0
   26.1665   34.3265   50.5072 H   0  0  0  0  0  0
   25.9519   34.2201   52.7070 H   0  0  0  0  0  0
   21.8874   33.1258   51.7883 H   0  0  0  0  0  0
   25.2443   33.3742   56.7757 H   0  0  0  0  0  0
   24.8506   32.7011   59.0815 H   0  0  0  0  0  0
   22.6205   31.9255   59.7949 H   0  0  0  0  0  0
   20.2231   31.9635   59.4069 H   0  0  0  0  0  0
   19.5887   32.4978   57.8996 H   0  0  0  0  0  0
   19.0401   26.9809   56.7320 H   0  0  0  0  0  0
   20.0179   27.2405   58.8787 H   0  0  0  0  0  0
   18.6474   26.8346   54.6590 H   0  0  0  0  0  0
   17.4965   26.6686   52.5287 H   0  0  0  0  0  0
   16.5387   28.6851   51.4518 H   0  0  0  0  0  0
   17.9339   31.1003   54.6757 H   0  0  0  0  0  0
   21.0980   32.6179   55.8680 H   0  0  0  0  0  0
   23.3734   31.4683   47.0969 H   0  0  0  0  0  0
  1  2  1  0  0  0
  1 35  1  0  0  0
  1 36  1  0  0  0
  1 37  1  0  0  0
  2  3  1  0  0  0
  2  4  1  0  0  0
  2 61  1  0  0  0
  3 38  1  0  0  0
  3 39  1  0  0  0
  3 40  1  0  0  0
  4  5  1  0  0  0
  4 41  1  0  0  0
  4 42  1  0  0  0
  5  6  1  0  0  0
  5 43  1  0  0  0
  5 44  1  0  0  0
  6  7  1  0  0  0
  6 45  1  0  0  0
  6 46  1  0  0  0
  7  8  1  0  0  0
  8  9  2  0  0  0
  8 13  1  0  0  0
  9 10  1  0  0  0
  9 47  1  0  0  0
 10 11  2  0  0  0
 11 12  1  0  0  0
 11 14  1  0  0  0
 12 13  2  0  0  0
 13 48  1  0  0  0
 14 15  2  0  0  0
 14 34  1  0  0  0
 15 16  1  0  0  0
 15 49  1  0  0  0
 16 17  2  0  0  0
 16 50  1  0  0  0
 17 18  1  0  0  0
 17 51  1  0  0  0
 18 19  1  0  0  0
 18 34  2  0  0  0
 19 20  1  0  0  0
 19 52  1  0  0  0
 19 53  1  0  0  0
 20 21  1  0  0  0
 20 25  1  0  0  0
 21 22  2  0  0  0
 22 23  1  0  0  0
 22 27  1  0  0  0
 23 24  2  0  0  0
 23 54  1  0  0  0
 24 25  1  0  0  0
 24 55  1  0  0  0
 25 26  2  0  0  0
 27 28  2  0  0  0
 27 33  1  0  0  0
 28 29  1  0  0  0
 28 56  1  0  0  0
 29 30  2  0  0  0
 29 57  1  0  0  0
 30 31  1  0  0  0
 30 58  1  0  0  0
 31 32  1  0  0  0
 31 33  2  0  0  0
 33 59  1  0  0  0
 34 60  1  0  0  0
M  CHG  1   2   1
M  END
> <s_user_Name>
CHEMBL3402757_6.5

> <IC50[nM]>
6.5

$$$$
