@<TRIPOS>MOLECULE
CHEMBL3402762_1
66   70    1
SMALL
USER_CHARGES


@<TRIPOS>ATOM
      1 C1         25.2972   29.3647   46.7015 C.3       1 UNK         0.0000 
      2 N2         25.0472   30.5455   47.6646 N.4       1 UNK         0.0000 
      3 C3         23.6340   30.4434   48.2818 C.3       1 UNK         0.0000 
      4 C4         23.4401   31.5920   49.2829 C.3       1 UNK         0.0000 
      5 C5         23.6806   32.9771   48.6432 C.3       1 UNK         0.0000 
      6 C6         23.5016   34.1241   49.6598 C.3       1 UNK         0.0000 
      7 O7         24.4712   34.0336   50.7092 O.3       1 UNK         0.0000 
      8 C8         24.0941   33.7587   52.0109 C.ar      1 UNK         0.0000 
      9 C9         25.0463   33.9328   53.0156 C.ar      1 UNK         0.0000 
     10 N10        24.7792   33.7416   54.3338 N.ar      1 UNK         0.0000 
     11 C11        23.5184   33.3355   54.6583 C.ar      1 UNK         0.0000 
     12 N12        22.5278   33.1163   53.7486 N.ar      1 UNK         0.0000 
     13 C13        22.8299   33.3247   52.4399 C.ar      1 UNK         0.0000 
     14 C14        23.2238   33.0313   56.1029 C.ar      1 UNK         0.0000 
     15 C15        24.2415   33.0442   57.0710 C.ar      1 UNK         0.0000 
     16 C16        23.9955   32.6644   58.3898 C.ar      1 UNK         0.0000 
     17 C17        22.7234   32.2550   58.7744 C.ar      1 UNK         0.0000 
     18 C18        21.6814   32.2510   57.8432 C.ar      1 UNK         0.0000 
     19 C19        20.2776   31.8222   58.2633 C.3       1 UNK         0.0000 
     20 N20        19.9596   30.4283   57.9055 N.pl3     1 UNK         0.0000 
     21 N21        19.5057   30.2203   56.5990 N.2       1 UNK         0.0000 
     22 C22        19.2468   29.0387   56.1349 C.ar      1 UNK         0.0000 
     23 C23        19.4363   27.9257   57.0492 C.ar      1 UNK         0.0000 
     24 C24        19.8875   28.1176   58.3104 C.ar      1 UNK         0.0000 
     25 C25        20.2068   29.4347   58.8316 C.ar      1 UNK         0.0000 
     26 O26        20.6455   29.5966   59.9728 O.2       1 UNK         0.0000 
     27 C27        18.7906   28.8114   54.7456 C.ar      1 UNK         0.0000 
     28 C28        19.1078   29.7541   53.7518 C.ar      1 UNK         0.0000 
     29 C29        18.7040   29.5653   52.4326 C.ar      1 UNK         0.0000 
     30 C30        17.9727   28.4346   52.0806 C.ar      1 UNK         0.0000 
     31 C31        17.6452   27.4857   53.0540 C.ar      1 UNK         0.0000 
     32 C32        18.0626   27.6673   54.3751 C.ar      1 UNK         0.0000 
     33 C33        16.8662   26.3141   52.6780 C.1       1 UNK         0.0000 
     34 N34        16.2469   25.3833   52.3771 N.1       1 UNK         0.0000 
     35 C35        21.9323   32.6609   56.5280 C.ar      1 UNK         0.0000 
     36 C36        25.0622   33.0303   47.9539 C.3       1 UNK         0.0000 
     37 C37        25.2640   31.8925   46.9387 C.3       1 UNK         0.0000 
     38 H38        25.1789   28.4422   47.2750 H         1 UNK         0.0000 
     39 H39        26.3189   29.4533   46.3281 H         1 UNK         0.0000 
     40 H40        24.5692   29.4223   45.8884 H         1 UNK         0.0000 
     41 H41        22.9124   30.4809   47.4607 H         1 UNK         0.0000 
     42 H42        23.5641   29.4777   48.7758 H         1 UNK         0.0000 
     43 H43        24.1182   31.4437   50.1259 H         1 UNK         0.0000 
     44 H44        22.4311   31.5422   49.6918 H         1 UNK         0.0000 
     45 H45        22.9233   33.1220   47.8691 H         1 UNK         0.0000 
     46 H46        23.6730   35.0747   49.1549 H         1 UNK         0.0000 
     47 H47        22.4649   34.1812   49.9843 H         1 UNK         0.0000 
     48 H48        26.0449   34.2630   52.7644 H         1 UNK         0.0000 
     49 H49        22.0200   33.1298   51.7544 H         1 UNK         0.0000 
     50 H50        25.2505   33.3245   56.8032 H         1 UNK         0.0000 
     51 H51        24.8048   32.6723   59.1083 H         1 UNK         0.0000 
     52 H52        22.5475   31.9264   59.7879 H         1 UNK         0.0000 
     53 H53        20.1415   32.0069   59.3313 H         1 UNK         0.0000 
     54 H54        19.5506   32.4823   57.7863 H         1 UNK         0.0000 
     55 H55        19.2477   26.9076   56.7408 H         1 UNK         0.0000 
     56 H56        20.0324   27.2661   58.9593 H         1 UNK         0.0000 
     57 H57        19.6758   30.6403   53.9934 H         1 UNK         0.0000 
     58 H58        18.9589   30.2997   51.6786 H         1 UNK         0.0000 
     59 H59        17.6668   28.3038   51.0519 H         1 UNK         0.0000 
     60 H60        17.7985   26.9210   55.1130 H         1 UNK         0.0000 
     61 H61        21.1162   32.6438   55.8207 H         1 UNK         0.0000 
     62 H62        25.8511   32.9816   48.7062 H         1 UNK         0.0000 
     63 H63        25.1907   33.9891   47.4494 H         1 UNK         0.0000 
     64 H64        24.5527   31.9411   46.1113 H         1 UNK         0.0000 
     65 H65        26.2809   31.8898   46.5439 H         1 UNK         0.0000 
     66 H66        25.7364   30.5092   48.4103 H         1 UNK         0.0000 
@<TRIPOS>BOND
     1    1    2 1    
     2    1   38 1    
     3    1   39 1    
     4    1   40 1    
     5    2    3 1    
     6    2   37 1    
     7    2   66 1    
     8    3    4 1    
     9    3   41 1    
    10    3   42 1    
    11    4    5 1    
    12    4   43 1    
    13    4   44 1    
    14    5    6 1    
    15    5   36 1    
    16    5   45 1    
    17    6    7 1    
    18    6   46 1    
    19    6   47 1    
    20    7    8 1    
    21    8    9 ar   
    22    8   13 ar   
    23    9   10 ar   
    24    9   48 1    
    25   10   11 ar   
    26   11   12 ar   
    27   11   14 1    
    28   12   13 ar   
    29   13   49 1    
    30   14   15 ar   
    31   14   35 ar   
    32   15   16 ar   
    33   15   50 1    
    34   16   17 ar   
    35   16   51 1    
    36   17   18 ar   
    37   17   52 1    
    38   18   19 1    
    39   18   35 ar   
    40   19   20 1    
    41   19   53 1    
    42   19   54 1    
    43   20   21 ar   
    44   20   25 ar   
    45   21   22 ar   
    46   22   23 ar   
    47   22   27 1    
    48   23   24 ar   
    49   23   55 1    
    50   24   25 ar   
    51   24   56 1    
    52   25   26 2    
    53   27   28 ar   
    54   27   32 ar   
    55   28   29 ar   
    56   28   57 1    
    57   29   30 ar   
    58   29   58 1    
    59   30   31 ar   
    60   30   59 1    
    61   31   32 ar   
    62   31   33 1    
    63   32   60 1    
    64   33   34 3    
    65   35   61 1    
    66   36   37 1    
    67   36   62 1    
    68   36   63 1    
    69   37   64 1    
    70   37   65 1    
@<TRIPOS>SUBSTRUCTURE
     1 UNK         1 GROUP             0       ****    0 ROOT    
