CHEMBL3402758_10
                    3D
 Schrodinger Suite 2020-3.
 60 63  0  0  1  0            999 V2000
   22.9152   29.8931   48.1561 C   0  0  0  0  0  0
   24.2551   30.6483   48.3008 N   0  3  0  0  0  0
   25.1218   30.4724   47.0330 C   0  0  0  0  0  0
   24.0434   32.1319   48.6858 C   0  0  0  0  0  0
   25.3059   32.6758   49.3763 C   0  0  0  0  0  0
   25.1552   34.0797   49.9601 C   0  0  0  0  0  0
   23.9394   34.1774   50.6857 O   0  0  0  0  0  0
   23.8832   33.7800   52.0009 C   0  0  0  0  0  0
   24.9026   33.9265   52.9536 C   0  0  0  0  0  0
   24.7110   33.6572   54.2732 N   0  0  0  0  0  0
   23.4739   33.2169   54.6422 C   0  0  0  0  0  0
   22.4457   33.0003   53.7775 N   0  0  0  0  0  0
   22.6711   33.2812   52.4732 C   0  0  0  0  0  0
   23.2175   32.9270   56.0926 C   0  0  0  0  0  0
   24.2484   32.9698   57.0452 C   0  0  0  0  0  0
   24.0210   32.6233   58.3754 C   0  0  0  0  0  0
   22.7528   32.2188   58.7787 C   0  0  0  0  0  0
   21.6995   32.1904   57.8666 C   0  0  0  0  0  0
   20.3003   31.7816   58.3130 C   0  0  0  0  0  0
   19.9556   30.3998   57.9322 N   0  0  0  0  0  0
   19.4383   30.2304   56.6462 N   0  0  0  0  0  0
   19.0792   29.0738   56.1867 C   0  0  0  0  0  0
   19.3118   27.9338   57.0630 C   0  0  0  0  0  0
   19.8456   28.0864   58.2961 C   0  0  0  0  0  0
   20.1994   29.3881   58.8358 C   0  0  0  0  0  0
   20.6461   29.5264   59.9758 O   0  0  0  0  0  0
   18.4684   28.9016   54.8476 C   0  0  0  0  0  0
   18.2473   27.6429   54.2625 C   0  0  0  0  0  0
   17.6426   27.5449   53.0095 C   0  0  0  0  0  0
   17.2575   28.7188   52.3615 C   0  0  0  0  0  0
   17.4530   29.9497   52.8941 N   0  0  0  0  0  0
   18.0494   30.0246   54.1102 C   0  0  0  0  0  0
   21.9345   32.5596   56.5416 C   0  0  0  0  0  0
   22.3844   29.9730   49.1064 H   0  0  0  0  0  0
   23.1448   28.8479   47.9357 H   0  0  0  0  0  0
   22.3491   30.3567   47.3451 H   0  0  0  0  0  0
   26.0669   30.9958   47.1787 H   0  0  0  0  0  0
   24.5712   30.8895   46.1875 H   0  0  0  0  0  0
   25.2982   29.4030   46.9013 H   0  0  0  0  0  0
   23.7656   32.6740   47.7807 H   0  0  0  0  0  0
   23.1997   32.1424   49.3791 H   0  0  0  0  0  0
   25.6010   31.9984   50.1797 H   0  0  0  0  0  0
   26.1285   32.7270   48.6630 H   0  0  0  0  0  0
   26.0407   34.3279   50.5421 H   0  0  0  0  0  0
   25.1051   34.8078   49.1483 H   0  0  0  0  0  0
   25.8688   34.3330   52.6953 H   0  0  0  0  0  0
   21.8477   33.1258   51.7966 H   0  0  0  0  0  0
   25.2516   33.2562   56.7614 H   0  0  0  0  0  0
   24.8370   32.6599   59.0843 H   0  0  0  0  0  0
   22.5869   31.9258   59.8043 H   0  0  0  0  0  0
   20.1888   31.9511   59.3862 H   0  0  0  0  0  0
   19.5784   32.4646   57.8623 H   0  0  0  0  0  0
   19.0698   26.9259   56.7633 H   0  0  0  0  0  0
   20.0130   27.2201   58.9200 H   0  0  0  0  0  0
   18.5430   26.7263   54.7473 H   0  0  0  0  0  0
   17.4839   26.5810   52.5493 H   0  0  0  0  0  0
   16.7860   28.6808   51.3901 H   0  0  0  0  0  0
   18.1755   31.0262   54.4931 H   0  0  0  0  0  0
   21.1066   32.5214   55.8496 H   0  0  0  0  0  0
   24.7582   30.2204   49.0693 H   0  0  0  0  0  0
  1  2  1  0  0  0
  1 34  1  0  0  0
  1 35  1  0  0  0
  1 36  1  0  0  0
  2  3  1  0  0  0
  2  4  1  0  0  0
  2 60  1  0  0  0
  3 37  1  0  0  0
  3 38  1  0  0  0
  3 39  1  0  0  0
  4  5  1  0  0  0
  4 40  1  0  0  0
  4 41  1  0  0  0
  5  6  1  0  0  0
  5 42  1  0  0  0
  5 43  1  0  0  0
  6  7  1  0  0  0
  6 44  1  0  0  0
  6 45  1  0  0  0
  7  8  1  0  0  0
  8  9  2  0  0  0
  8 13  1  0  0  0
  9 10  1  0  0  0
  9 46  1  0  0  0
 10 11  2  0  0  0
 11 12  1  0  0  0
 11 14  1  0  0  0
 12 13  2  0  0  0
 13 47  1  0  0  0
 14 15  2  0  0  0
 14 33  1  0  0  0
 15 16  1  0  0  0
 15 48  1  0  0  0
 16 17  2  0  0  0
 16 49  1  0  0  0
 17 18  1  0  0  0
 17 50  1  0  0  0
 18 19  1  0  0  0
 18 33  2  0  0  0
 19 20  1  0  0  0
 19 51  1  0  0  0
 19 52  1  0  0  0
 20 21  1  0  0  0
 20 25  1  0  0  0
 21 22  2  0  0  0
 22 23  1  0  0  0
 22 27  1  0  0  0
 23 24  2  0  0  0
 23 53  1  0  0  0
 24 25  1  0  0  0
 24 54  1  0  0  0
 25 26  2  0  0  0
 27 28  2  0  0  0
 27 32  1  0  0  0
 28 29  1  0  0  0
 28 55  1  0  0  0
 29 30  2  0  0  0
 29 56  1  0  0  0
 30 31  1  0  0  0
 30 57  1  0  0  0
 31 32  2  0  0  0
 32 58  1  0  0  0
 33 59  1  0  0  0
M  CHG  1   2   1
M  END
> <s_user_Name>
CHEMBL3402758_10

> <IC50[nM]>
10

$$$$
