@<TRIPOS>MOLECULE
CHEMBL3402750_400
43   46    1
SMALL
USER_CHARGES


@<TRIPOS>ATOM
      1 C1         23.7416   33.4339   50.5656 C.3       1 UNK         0.0000 
      2 C2         23.9419   33.5262   52.0577 C.2       1 UNK         0.0000 
      3 C3         25.0472   33.9262   52.8109 C.2       1 UNK         0.0000 
      4 N4         24.9413   33.8882   54.1251 N.2       1 UNK         0.0000 
      5 C5         23.7703   33.4371   54.5091 C.2       1 UNK         0.0000 
      6 S6         22.6918   33.0941   53.1909 S.3       1 UNK         0.0000 
      7 C7         23.3991   33.1258   55.9322 C.ar      1 UNK         0.0000 
      8 C8         24.3940   33.1223   56.9191 C.ar      1 UNK         0.0000 
      9 C9         24.1066   32.7375   58.2267 C.ar      1 UNK         0.0000 
     10 C10        22.8110   32.3634   58.5715 C.ar      1 UNK         0.0000 
     11 C11        21.7948   32.3802   57.6162 C.ar      1 UNK         0.0000 
     12 C12        20.3655   32.0248   58.0262 C.3       1 UNK         0.0000 
     13 N13        20.0019   30.6204   57.7683 N.pl3     1 UNK         0.0000 
     14 N14        19.4474   30.3566   56.5137 N.2       1 UNK         0.0000 
     15 C15        19.0638   29.1726   56.1515 C.ar      1 UNK         0.0000 
     16 C16        19.2956   28.1043   57.1128 C.ar      1 UNK         0.0000 
     17 C17        19.8470   28.3480   58.3259 C.ar      1 UNK         0.0000 
     18 C18        20.2312   29.6832   58.7547 C.ar      1 UNK         0.0000 
     19 O19        20.6849   29.9063   59.8819 O.2       1 UNK         0.0000 
     20 C20        18.4133   28.9105   54.8422 C.ar      1 UNK         0.0000 
     21 C21        17.9351   29.9898   54.0754 C.ar      1 UNK         0.0000 
     22 C22        17.2559   29.7777   52.8782 C.ar      1 UNK         0.0000 
     23 F23        16.7949   30.8353   52.1707 F         1 UNK         0.0000 
     24 C24        17.0400   28.4827   52.4202 C.ar      1 UNK         0.0000 
     25 C25        17.5120   27.4001   53.1582 C.ar      1 UNK         0.0000 
     26 F26        17.2881   26.1399   52.7214 F         1 UNK         0.0000 
     27 C27        18.2026   27.6096   54.3522 C.ar      1 UNK         0.0000 
     28 C28        22.0909   32.7664   56.3023 C.ar      1 UNK         0.0000 
     29 H29        23.6844   32.3960   50.2370 H         1 UNK         0.0000 
     30 H30        24.5565   33.9022   50.0124 H         1 UNK         0.0000 
     31 H31        22.8173   33.9215   50.2539 H         1 UNK         0.0000 
     32 H32        25.9799   34.2599   52.3772 H         1 UNK         0.0000 
     33 H33        25.4112   33.3943   56.6782 H         1 UNK         0.0000 
     34 H34        24.8920   32.7270   58.9682 H         1 UNK         0.0000 
     35 H35        22.5972   32.0572   59.5827 H         1 UNK         0.0000 
     36 H36        20.2132   32.2909   59.0739 H         1 UNK         0.0000 
     37 H37        19.6776   32.6821   57.4901 H         1 UNK         0.0000 
     38 H38        19.0342   27.0804   56.8932 H         1 UNK         0.0000 
     39 H39        20.0092   27.5307   59.0138 H         1 UNK         0.0000 
     40 H40        18.0667   31.0101   54.4070 H         1 UNK         0.0000 
     41 H41        16.4995   28.3179   51.4996 H         1 UNK         0.0000 
     42 H42        18.5540   26.7358   54.8749 H         1 UNK         0.0000 
     43 H43        21.2972   32.7657   55.5704 H         1 UNK         0.0000 
@<TRIPOS>BOND
     1    1    2 1    
     2    1   29 1    
     3    1   30 1    
     4    1   31 1    
     5    2    3 2    
     6    2    6 1    
     7    3    4 1    
     8    3   32 1    
     9    4    5 2    
    10    5    6 1    
    11    5    7 1    
    12    7    8 ar   
    13    7   28 ar   
    14    8    9 ar   
    15    8   33 1    
    16    9   10 ar   
    17    9   34 1    
    18   10   11 ar   
    19   10   35 1    
    20   11   12 1    
    21   11   28 ar   
    22   12   13 1    
    23   12   36 1    
    24   12   37 1    
    25   13   14 ar   
    26   13   18 ar   
    27   14   15 ar   
    28   15   16 ar   
    29   15   20 1    
    30   16   17 ar   
    31   16   38 1    
    32   17   18 ar   
    33   17   39 1    
    34   18   19 2    
    35   20   21 ar   
    36   20   27 ar   
    37   21   22 ar   
    38   21   40 1    
    39   22   23 1    
    40   22   24 ar   
    41   24   25 ar   
    42   24   41 1    
    43   25   26 1    
    44   25   27 ar   
    45   27   42 1    
    46   28   43 1    
@<TRIPOS>SUBSTRUCTURE
     1 UNK         1 GROUP             0       ****    0 ROOT    
