@<TRIPOS>MOLECULE
CHEMBL3402763_90
63   65    1
SMALL
USER_CHARGES


@<TRIPOS>ATOM
      1 C1         24.4727   31.0016   48.0036 C.3       1 UNK         0.0000 
      2 C2         24.5300   32.4421   47.4625 C.3       1 UNK         0.0000 
      3 N3         25.8471   33.1263   47.9174 N.4       1 UNK         0.0000 
      4 C4         26.5582   33.8236   46.7267 C.3       1 UNK         0.0000 
      5 C5         27.9680   34.3135   47.0983 C.3       1 UNK         0.0000 
      6 C6         25.7037   34.0574   49.1505 C.3       1 UNK         0.0000 
      7 C7         25.0196   33.3694   50.3406 C.3       1 UNK         0.0000 
      8 C8         25.1207   34.2204   51.6096 C.3       1 UNK         0.0000 
      9 O9         24.2089   33.7070   52.5694 O.3       1 UNK         0.0000 
     10 C10        24.4274   33.8425   53.8818 C.2       1 UNK         0.0000 
     11 O11        25.4468   34.3262   54.3758 O.2       1 UNK         0.0000 
     12 N12        23.3143   33.3489   54.5431 N.am      1 UNK         0.0000 
     13 C13        23.1199   33.0979   55.9090 C.ar      1 UNK         0.0000 
     14 C14        24.1414   33.1258   56.8692 C.ar      1 UNK         0.0000 
     15 C15        23.8696   32.7659   58.1897 C.ar      1 UNK         0.0000 
     16 C16        22.5879   32.3615   58.5569 C.ar      1 UNK         0.0000 
     17 C17        21.5635   32.3202   57.6077 C.ar      1 UNK         0.0000 
     18 C18        20.1562   31.8850   58.0078 C.3       1 UNK         0.0000 
     19 N19        19.8644   30.4717   57.6936 N.am      1 UNK         0.0000 
     20 N20        19.3890   30.2278   56.4402 N.2       1 UNK         0.0000 
     21 C21        19.0442   29.0918   55.9519 C.2       1 UNK         0.0000 
     22 C22        19.2131   27.7463   56.6825 C.3       1 UNK         0.0000 
     23 S23        19.8987   27.7561   58.3757 S.3       1 UNK         0.0000 
     24 C24        20.1827   29.5317   58.6864 C.2       1 UNK         0.0000 
     25 O25        20.6467   29.8222   59.7923 O.2       1 UNK         0.0000 
     26 C26        18.4155   29.0391   54.5996 C.ar      1 UNK         0.0000 
     27 C27        17.9456   30.2139   53.9817 C.ar      1 UNK         0.0000 
     28 C28        17.3441   30.1691   52.7261 C.ar      1 UNK         0.0000 
     29 C29        17.2051   28.9511   52.0696 C.ar      1 UNK         0.0000 
     30 Cl30       16.4736   28.8975   50.5073 Cl        1 UNK         0.0000 
     31 C31        17.6526   27.7758   52.6640 C.ar      1 UNK         0.0000 
     32 C32        18.2471   27.8189   53.9222 C.ar      1 UNK         0.0000 
     33 C33        21.8327   32.7061   56.2913 C.ar      1 UNK         0.0000 
     34 H34        23.5968   30.4811   47.6104 H         1 UNK         0.0000 
     35 H35        24.4033   30.9609   49.0891 H         1 UNK         0.0000 
     36 H36        25.3532   30.4260   47.7088 H         1 UNK         0.0000 
     37 H37        24.5177   32.4252   46.3705 H         1 UNK         0.0000 
     38 H38        23.6976   33.0693   47.7875 H         1 UNK         0.0000 
     39 H39        26.6196   33.0663   45.9418 H         1 UNK         0.0000 
     40 H40        25.9002   34.6318   46.3996 H         1 UNK         0.0000 
     41 H41        28.5062   34.6317   46.2047 H         1 UNK         0.0000 
     42 H42        28.5571   33.5279   47.5728 H         1 UNK         0.0000 
     43 H43        27.9415   35.1731   47.7690 H         1 UNK         0.0000 
     44 H44        26.7217   34.3261   49.4276 H         1 UNK         0.0000 
     45 H45        25.1693   34.9484   48.8141 H         1 UNK         0.0000 
     46 H46        23.9675   33.2044   50.1122 H         1 UNK         0.0000 
     47 H47        25.4667   32.3939   50.5322 H         1 UNK         0.0000 
     48 H48        26.1498   34.2162   51.9755 H         1 UNK         0.0000 
     49 H49        24.8575   35.2572   51.3965 H         1 UNK         0.0000 
     50 H50        22.5395   33.1075   53.9443 H         1 UNK         0.0000 
     51 H51        25.1537   33.4086   56.6205 H         1 UNK         0.0000 
     52 H52        24.6629   32.7886   58.9236 H         1 UNK         0.0000 
     53 H53        22.3957   32.0656   59.5762 H         1 UNK         0.0000 
     54 H54        19.9788   32.1176   59.0609 H         1 UNK         0.0000 
     55 H55        19.4347   32.5167   57.4888 H         1 UNK         0.0000 
     56 H56        18.2473   27.2434   56.7524 H         1 UNK         0.0000 
     57 H57        19.8772   27.1004   56.1068 H         1 UNK         0.0000 
     58 H58        18.0354   31.1729   54.4712 H         1 UNK         0.0000 
     59 H59        16.9904   31.0770   52.2615 H         1 UNK         0.0000 
     60 H60        17.5495   26.8304   52.1502 H         1 UNK         0.0000 
     61 H61        18.5791   26.8796   54.3375 H         1 UNK         0.0000 
     62 H62        21.0378   32.6610   55.5594 H         1 UNK         0.0000 
     63 H63        26.4658   32.3740   48.2108 H         1 UNK         0.0000 
@<TRIPOS>BOND
     1    1    2 1    
     2    1   34 1    
     3    1   35 1    
     4    1   36 1    
     5    2    3 1    
     6    2   37 1    
     7    2   38 1    
     8    3    4 1    
     9    3    6 1    
    10    3   63 1    
    11    4    5 1    
    12    4   39 1    
    13    4   40 1    
    14    5   41 1    
    15    5   42 1    
    16    5   43 1    
    17    6    7 1    
    18    6   44 1    
    19    6   45 1    
    20    7    8 1    
    21    7   46 1    
    22    7   47 1    
    23    8    9 1    
    24    8   48 1    
    25    8   49 1    
    26    9   10 1    
    27   10   11 2    
    28   10   12 am   BACKBONE|DICT|INTERRES
    29   12   13 1    
    30   12   50 1    
    31   13   14 ar   
    32   13   33 ar   
    33   14   15 ar   
    34   14   51 1    
    35   15   16 ar   
    36   15   52 1    
    37   16   17 ar   
    38   16   53 1    
    39   17   18 1    
    40   17   33 ar   
    41   18   19 1    
    42   18   54 1    
    43   18   55 1    
    44   19   20 1    
    45   19   24 am   BACKBONE|DICT|INTERRES
    46   20   21 2    
    47   21   22 1    
    48   21   26 1    
    49   22   23 1    
    50   22   56 1    
    51   22   57 1    
    52   23   24 1    
    53   24   25 2    
    54   26   27 ar   
    55   26   32 ar   
    56   27   28 ar   
    57   27   58 1    
    58   28   29 ar   
    59   28   59 1    
    60   29   30 1    
    61   29   31 ar   
    62   31   32 ar   
    63   31   60 1    
    64   32   61 1    
    65   33   62 1    
@<TRIPOS>SUBSTRUCTURE
     1 UNK         1 GROUP             0       ****    0 ROOT    
