@<TRIPOS>MOLECULE
CHEMBL3402752_30000
43   46    1
SMALL
USER_CHARGES


@<TRIPOS>ATOM
      1 C1         25.8234   33.9368   52.0874 C.3       1 UNK         0.0000 
      2 C2         24.5773   33.5529   52.8371 C.2       1 UNK         0.0000 
      3 N3         24.5033   33.5215   54.1481 N.2       1 UNK         0.0000 
      4 C4         23.3141   33.1507   54.6047 C.2       1 UNK         0.0000 
      5 C5         22.3783   32.9204   53.5909 C.2       1 UNK         0.0000 
      6 S6         23.1081   33.1260   52.0358 S.3       1 UNK         0.0000 
      7 C7         23.0782   32.9428   56.0753 C.ar      1 UNK         0.0000 
      8 C8         24.1214   33.0156   57.0120 C.ar      1 UNK         0.0000 
      9 C9         23.9060   32.6758   58.3464 C.ar      1 UNK         0.0000 
     10 C10        22.6470   32.2458   58.7660 C.ar      1 UNK         0.0000 
     11 C11        21.5865   32.1977   57.8576 C.ar      1 UNK         0.0000 
     12 C12        20.1983   31.7432   58.2997 C.3       1 UNK         0.0000 
     13 N13        19.9103   30.3472   57.9267 N.pl3     1 UNK         0.0000 
     14 N14        19.4457   30.1367   56.6240 N.2       1 UNK         0.0000 
     15 C15        19.1955   28.9527   56.1602 C.ar      1 UNK         0.0000 
     16 C16        19.4462   27.8387   57.0634 C.ar      1 UNK         0.0000 
     17 C17        19.9156   28.0338   58.3163 C.ar      1 UNK         0.0000 
     18 C18        20.1990   29.3563   58.8423 C.ar      1 UNK         0.0000 
     19 O19        20.6466   29.5307   59.9757 O.2       1 UNK         0.0000 
     20 C20        18.6782   28.7120   54.7928 C.ar      1 UNK         0.0000 
     21 C21        18.8686   29.6755   53.7873 C.ar      1 UNK         0.0000 
     22 C22        18.4018   29.4581   52.4919 C.ar      1 UNK         0.0000 
     23 F23        18.5947   30.3979   51.5403 F         1 UNK         0.0000 
     24 C24        17.7355   28.2754   52.1779 C.ar      1 UNK         0.0000 
     25 C25        17.5376   27.3094   53.1591 C.ar      1 UNK         0.0000 
     26 F26        16.8840   26.1648   52.8599 F         1 UNK         0.0000 
     27 C27        18.0078   27.5260   54.4534 C.ar      1 UNK         0.0000 
     28 C28        21.8052   32.5682   56.5284 C.ar      1 UNK         0.0000 
     29 H29        25.6127   34.7585   51.4074 H         1 UNK         0.0000 
     30 H30        26.1895   33.1263   51.4574 H         1 UNK         0.0000 
     31 H31        26.6381   34.2399   52.7438 H         1 UNK         0.0000 
     32 H32        21.3476   32.6089   53.6669 H         1 UNK         0.0000 
     33 H33        25.1167   33.3023   56.7016 H         1 UNK         0.0000 
     34 H34        24.7283   32.7185   59.0468 H         1 UNK         0.0000 
     35 H35        22.4998   31.9283   59.7886 H         1 UNK         0.0000 
     36 H36        20.0766   31.9170   59.3695 H         1 UNK         0.0000 
     37 H37        19.4477   32.3927   57.8405 H         1 UNK         0.0000 
     38 H38        19.2890   26.8170   56.7517 H         1 UNK         0.0000 
     39 H39        20.1073   27.1837   58.9532 H         1 UNK         0.0000 
     40 H40        19.3903   30.5998   53.9954 H         1 UNK         0.0000 
     41 H41        17.3745   28.1070   51.1755 H         1 UNK         0.0000 
     42 H42        17.8281   26.7513   55.1826 H         1 UNK         0.0000 
     43 H43        20.9769   32.5013   55.8382 H         1 UNK         0.0000 
@<TRIPOS>BOND
     1    1    2 1    
     2    1   29 1    
     3    1   30 1    
     4    1   31 1    
     5    2    3 2    
     6    2    6 1    
     7    3    4 1    
     8    4    5 2    
     9    4    7 1    
    10    5    6 1    
    11    5   32 1    
    12    7    8 ar   
    13    7   28 ar   
    14    8    9 ar   
    15    8   33 1    
    16    9   10 ar   
    17    9   34 1    
    18   10   11 ar   
    19   10   35 1    
    20   11   12 1    
    21   11   28 ar   
    22   12   13 1    
    23   12   36 1    
    24   12   37 1    
    25   13   14 ar   
    26   13   18 ar   
    27   14   15 ar   
    28   15   16 ar   
    29   15   20 1    
    30   16   17 ar   
    31   16   38 1    
    32   17   18 ar   
    33   17   39 1    
    34   18   19 2    
    35   20   21 ar   
    36   20   27 ar   
    37   21   22 ar   
    38   21   40 1    
    39   22   23 1    
    40   22   24 ar   
    41   24   25 ar   
    42   24   41 1    
    43   25   26 1    
    44   25   27 ar   
    45   27   42 1    
    46   28   43 1    
@<TRIPOS>SUBSTRUCTURE
     1 UNK         1 GROUP             0       ****    0 ROOT    
