@<TRIPOS>MOLECULE
CHEMBL3402755_4200
45   48    1
SMALL
USER_CHARGES


@<TRIPOS>ATOM
      1 C1         24.9268   34.0387   50.7958 C.3       1 UNK         0.0000 
      2 C2         24.3292   33.7968   52.1682 C.ar      1 UNK         0.0000 
      3 C3         23.0499   33.2693   52.3344 C.ar      1 UNK         0.0000 
      4 C4         22.6036   33.0410   53.6347 C.ar      1 UNK         0.0000 
      5 C5         23.4538   33.3556   54.7057 C.ar      1 UNK         0.0000 
      6 N6         24.6754   33.9192   54.4700 N.ar      1 UNK         0.0000 
      7 N7         25.1181   34.1276   53.2212 N.ar      1 UNK         0.0000 
      8 C8         23.1239   33.0265   56.1337 C.ar      1 UNK         0.0000 
      9 C9         24.1214   33.0302   57.1236 C.ar      1 UNK         0.0000 
     10 C10        23.8473   32.6424   58.4326 C.ar      1 UNK         0.0000 
     11 C11        22.5704   32.2174   58.7761 C.ar      1 UNK         0.0000 
     12 C12        21.5526   32.2075   57.8229 C.ar      1 UNK         0.0000 
     13 C13        20.1497   31.7465   58.2043 C.3       1 UNK         0.0000 
     14 N14        19.8854   30.3397   57.8543 N.pl3     1 UNK         0.0000 
     15 N15        19.4128   30.1090   56.5605 N.2       1 UNK         0.0000 
     16 C16        19.1571   28.9176   56.1180 C.ar      1 UNK         0.0000 
     17 C17        19.4059   27.8195   57.0375 C.ar      1 UNK         0.0000 
     18 C18        19.8870   28.0345   58.2822 C.ar      1 UNK         0.0000 
     19 C19        20.1852   29.3636   58.7850 C.ar      1 UNK         0.0000 
     20 O20        20.6460   29.5449   59.9141 O.2       1 UNK         0.0000 
     21 C21        18.6463   28.6600   54.7513 C.ar      1 UNK         0.0000 
     22 C22        17.9441   27.4851   54.4303 C.ar      1 UNK         0.0000 
     23 C23        17.4733   27.2606   53.1364 C.ar      1 UNK         0.0000 
     24 F24        16.7942   26.1288   52.8531 F         1 UNK         0.0000 
     25 C25        17.7086   28.2024   52.1378 C.ar      1 UNK         0.0000 
     26 C26        18.4025   29.3727   52.4339 C.ar      1 UNK         0.0000 
     27 F27        18.6243   30.2907   51.4676 F         1 UNK         0.0000 
     28 C28        18.8686   29.6005   53.7292 C.ar      1 UNK         0.0000 
     29 C29        21.8292   32.6350   56.5192 C.ar      1 UNK         0.0000 
     30 H30        25.0400   35.1100   50.6219 H         1 UNK         0.0000 
     31 H31        24.2962   33.6273   50.0037 H         1 UNK         0.0000 
     32 H32        25.9117   33.5709   50.7171 H         1 UNK         0.0000 
     33 H33        22.4207   33.0324   51.4858 H         1 UNK         0.0000 
     34 H34        21.6343   32.5922   53.7757 H         1 UNK         0.0000 
     35 H35        25.1348   33.3176   56.8881 H         1 UNK         0.0000 
     36 H36        24.6327   32.6583   59.1741 H         1 UNK         0.0000 
     37 H37        22.3648   31.8897   59.7856 H         1 UNK         0.0000 
     38 H38        19.9758   31.9310   59.2706 H         1 UNK         0.0000 
     39 H39        19.4176   32.3850   57.7063 H         1 UNK         0.0000 
     40 H40        19.2305   26.7935   56.7551 H         1 UNK         0.0000 
     41 H41        20.0775   27.1977   58.9349 H         1 UNK         0.0000 
     42 H42        17.7396   26.7272   55.1728 H         1 UNK         0.0000 
     43 H43        17.3583   28.0202   51.1328 H         1 UNK         0.0000 
     44 H44        19.4080   30.5144   53.9261 H         1 UNK         0.0000 
     45 H45        21.0233   32.6247   55.8023 H         1 UNK         0.0000 
@<TRIPOS>BOND
     1    1    2 1    
     2    1   30 1    
     3    1   31 1    
     4    1   32 1    
     5    2    3 ar   
     6    2    7 ar   
     7    3    4 ar   
     8    3   33 1    
     9    4    5 ar   
    10    4   34 1    
    11    5    6 ar   
    12    5    8 1    
    13    6    7 ar   
    14    8    9 ar   
    15    8   29 ar   
    16    9   10 ar   
    17    9   35 1    
    18   10   11 ar   
    19   10   36 1    
    20   11   12 ar   
    21   11   37 1    
    22   12   13 1    
    23   12   29 ar   
    24   13   14 1    
    25   13   38 1    
    26   13   39 1    
    27   14   15 ar   
    28   14   19 ar   
    29   15   16 ar   
    30   16   17 ar   
    31   16   21 1    
    32   17   18 ar   
    33   17   40 1    
    34   18   19 ar   
    35   18   41 1    
    36   19   20 2    
    37   21   22 ar   
    38   21   28 ar   
    39   22   23 ar   
    40   22   42 1    
    41   23   24 1    
    42   23   25 ar   
    43   25   26 ar   
    44   25   43 1    
    45   26   27 1    
    46   26   28 ar   
    47   28   44 1    
    48   29   45 1    
@<TRIPOS>SUBSTRUCTURE
     1 UNK         1 GROUP             0       ****    0 ROOT    
