@<TRIPOS>MOLECULE
CHEMBL3402749_500
43   46    1
SMALL
USER_CHARGES


@<TRIPOS>ATOM
      1 C1         23.1880   32.9654   51.3241 C.3       1 UNK         0.0000 
      2 C2         23.7323   33.2938   52.6892 C.2       1 UNK         0.0000 
      3 O3         23.0073   32.9075   53.7669 O.3       1 UNK         0.0000 
      4 C4         23.7531   33.3159   54.8274 C.2       1 UNK         0.0000 
      5 N5         24.8721   33.9267   54.4916 N.2       1 UNK         0.0000 
      6 C6         24.8644   33.9263   53.1729 C.2       1 UNK         0.0000 
      7 C7         23.2892   32.9610   56.2041 C.ar      1 UNK         0.0000 
      8 C8         24.2048   32.9742   57.2615 C.ar      1 UNK         0.0000 
      9 C9         23.8221   32.5836   58.5407 C.ar      1 UNK         0.0000 
     10 C10        22.5149   32.1657   58.7756 C.ar      1 UNK         0.0000 
     11 C11        21.5818   32.1409   57.7366 C.ar      1 UNK         0.0000 
     12 C12        20.1455   31.7068   58.0189 C.3       1 UNK         0.0000 
     13 N13        19.8732   30.2933   57.7046 N.pl3     1 UNK         0.0000 
     14 N14        19.4074   30.0305   56.4136 N.2       1 UNK         0.0000 
     15 C15        19.1391   28.8313   56.0058 C.ar      1 UNK         0.0000 
     16 C16        19.3681   27.7586   56.9585 C.ar      1 UNK         0.0000 
     17 C17        19.8455   28.0025   58.1991 C.ar      1 UNK         0.0000 
     18 C18        20.1419   29.3425   58.6718 C.ar      1 UNK         0.0000 
     19 O19        20.5653   29.5511   59.8118 O.2       1 UNK         0.0000 
     20 C20        18.6372   28.5332   54.6463 C.ar      1 UNK         0.0000 
     21 C21        17.8474   27.4018   54.3854 C.ar      1 UNK         0.0000 
     22 C22        17.4031   27.1223   53.0956 C.ar      1 UNK         0.0000 
     23 F23        16.6416   26.0297   52.8665 F         1 UNK         0.0000 
     24 C24        17.7375   27.9725   52.0441 C.ar      1 UNK         0.0000 
     25 C25        18.5167   29.1012   52.2829 C.ar      1 UNK         0.0000 
     26 F26        18.8413   29.9267   51.2621 F         1 UNK         0.0000 
     27 C27        18.9657   29.3808   53.5740 C.ar      1 UNK         0.0000 
     28 C28        21.9709   32.5531   56.4542 C.ar      1 UNK         0.0000 
     29 H29        22.9983   31.8957   51.2119 H         1 UNK         0.0000 
     30 H30        23.8766   33.2580   50.5307 H         1 UNK         0.0000 
     31 H31        22.2474   33.4816   51.1371 H         1 UNK         0.0000 
     32 H32        25.6629   34.3552   52.5844 H         1 UNK         0.0000 
     33 H33        25.2268   33.2791   57.0912 H         1 UNK         0.0000 
     34 H34        24.5411   32.6009   59.3448 H         1 UNK         0.0000 
     35 H35        22.2263   31.8517   59.7692 H         1 UNK         0.0000 
     36 H36        19.8857   31.9387   59.0540 H         1 UNK         0.0000 
     37 H37        19.4697   32.3355   57.4353 H         1 UNK         0.0000 
     38 H38        19.1925   26.7263   56.6886 H         1 UNK         0.0000 
     39 H39        20.0255   27.1780   58.8725 H         1 UNK         0.0000 
     40 H40        17.5634   26.7263   55.1785 H         1 UNK         0.0000 
     41 H41        17.3976   27.7504   51.0440 H         1 UNK         0.0000 
     42 H42        19.5782   30.2568   53.7298 H         1 UNK         0.0000 
     43 H43        21.2542   32.5276   55.6465 H         1 UNK         0.0000 
@<TRIPOS>BOND
     1    1    2 1    
     2    1   29 1    
     3    1   30 1    
     4    1   31 1    
     5    2    3 1    
     6    2    6 2    
     7    3    4 1    
     8    4    5 2    
     9    4    7 1    
    10    5    6 1    
    11    6   32 1    
    12    7    8 ar   
    13    7   28 ar   
    14    8    9 ar   
    15    8   33 1    
    16    9   10 ar   
    17    9   34 1    
    18   10   11 ar   
    19   10   35 1    
    20   11   12 1    
    21   11   28 ar   
    22   12   13 1    
    23   12   36 1    
    24   12   37 1    
    25   13   14 ar   
    26   13   18 ar   
    27   14   15 ar   
    28   15   16 ar   
    29   15   20 1    
    30   16   17 ar   
    31   16   38 1    
    32   17   18 ar   
    33   17   39 1    
    34   18   19 2    
    35   20   21 ar   
    36   20   27 ar   
    37   21   22 ar   
    38   21   40 1    
    39   22   23 1    
    40   22   24 ar   
    41   24   25 ar   
    42   24   41 1    
    43   25   26 1    
    44   25   27 ar   
    45   27   42 1    
    46   28   43 1    
@<TRIPOS>SUBSTRUCTURE
     1 UNK         1 GROUP             0       ****    0 ROOT    
