CHEMBL3402753_200
                    3D
 Schrodinger Suite 2020-3.
 46 49  0  0  1  0            999 V2000
   24.6440   33.7566   50.5299 C   0  0  0  0  0  0
   24.1955   33.6079   51.9712 C   0  0  0  0  0  0
   22.9269   33.1279   52.2874 C   0  0  0  0  0  0
   22.5559   32.9819   53.6250 C   0  0  0  0  0  0
   23.4682   33.3170   54.6402 C   0  0  0  0  0  0
   24.7033   33.8055   54.3290 N   0  0  0  0  0  0
   25.0501   33.9349   53.0237 C   0  0  0  0  0  0
   23.1953   33.0558   56.0977 C   0  0  0  0  0  0
   24.2278   33.1076   57.0532 C   0  0  0  0  0  0
   24.0151   32.7150   58.3740 C   0  0  0  0  0  0
   22.7600   32.2678   58.7755 C   0  0  0  0  0  0
   21.7005   32.2521   57.8672 C   0  0  0  0  0  0
   20.3107   31.8110   58.3229 C   0  0  0  0  0  0
   19.9717   30.4315   57.9305 N   0  0  0  0  0  0
   19.4379   30.2705   56.6488 N   0  0  0  0  0  0
   19.0713   29.1173   56.1871 C   0  0  0  0  0  0
   19.3100   27.9722   57.0534 C   0  0  0  0  0  0
   19.8477   28.1160   58.2858 C   0  0  0  0  0  0
   20.2087   29.4111   58.8309 C   0  0  0  0  0  0
   20.6466   29.5360   59.9757 O   0  0  0  0  0  0
   18.4362   28.9570   54.8556 C   0  0  0  0  0  0
   17.9522   30.0911   54.1748 C   0  0  0  0  0  0
   17.2982   29.9692   52.9506 C   0  0  0  0  0  0
   16.8364   31.0762   52.3231 F   0  0  0  0  0  0
   17.1097   28.7125   52.3844 C   0  0  0  0  0  0
   17.5833   27.5775   53.0396 C   0  0  0  0  0  0
   17.3892   26.3557   52.4989 F   0  0  0  0  0  0
   18.2471   27.6988   54.2596 C   0  0  0  0  0  0
   21.9191   32.6673   56.5497 C   0  0  0  0  0  0
   25.1758   32.8594   50.2079 H   0  0  0  0  0  0
   25.3161   34.6083   50.4144 H   0  0  0  0  0  0
   23.7921   33.9111   49.8659 H   0  0  0  0  0  0
   22.2301   32.8651   51.5047 H   0  0  0  0  0  0
   21.5777   32.5756   53.8360 H   0  0  0  0  0  0
   26.0426   34.3121   52.8220 H   0  0  0  0  0  0
   25.2268   33.4061   56.7732 H   0  0  0  0  0  0
   24.8331   32.7337   59.0783 H   0  0  0  0  0  0
   22.6120   31.9260   59.7898 H   0  0  0  0  0  0
   20.2103   31.9631   59.4002 H   0  0  0  0  0  0
   19.5697   32.4933   57.8958 H   0  0  0  0  0  0
   19.0659   26.9644   56.7514 H   0  0  0  0  0  0
   20.0179   27.2423   58.8982 H   0  0  0  0  0  0
   18.0622   31.0791   54.5954 H   0  0  0  0  0  0
   16.5959   28.6119   51.4403 H   0  0  0  0  0  0
   18.5991   26.7871   54.7204 H   0  0  0  0  0  0
   21.0819   32.6371   55.8707 H   0  0  0  0  0  0
  1  2  1  0  0  0
  1 30  1  0  0  0
  1 31  1  0  0  0
  1 32  1  0  0  0
  2  3  2  0  0  0
  2  7  1  0  0  0
  3  4  1  0  0  0
  3 33  1  0  0  0
  4  5  2  0  0  0
  4 34  1  0  0  0
  5  6  1  0  0  0
  5  8  1  0  0  0
  6  7  2  0  0  0
  7 35  1  0  0  0
  8  9  2  0  0  0
  8 29  1  0  0  0
  9 10  1  0  0  0
  9 36  1  0  0  0
 10 11  2  0  0  0
 10 37  1  0  0  0
 11 12  1  0  0  0
 11 38  1  0  0  0
 12 13  1  0  0  0
 12 29  2  0  0  0
 13 14  1  0  0  0
 13 39  1  0  0  0
 13 40  1  0  0  0
 14 15  1  0  0  0
 14 19  1  0  0  0
 15 16  2  0  0  0
 16 17  1  0  0  0
 16 21  1  0  0  0
 17 18  2  0  0  0
 17 41  1  0  0  0
 18 19  1  0  0  0
 18 42  1  0  0  0
 19 20  2  0  0  0
 21 22  2  0  0  0
 21 28  1  0  0  0
 22 23  1  0  0  0
 22 43  1  0  0  0
 23 24  1  0  0  0
 23 25  2  0  0  0
 25 26  1  0  0  0
 25 44  1  0  0  0
 26 27  1  0  0  0
 26 28  2  0  0  0
 28 45  1  0  0  0
 29 46  1  0  0  0
M  END
> <s_user_Name>
CHEMBL3402753_200

> <IC50[nM]>
200

$$$$
