CHEMBL3402743_42
                    3D
 Schrodinger Suite 2020-3.
 57 59  0  0  1  0            999 V2000
   24.1307   31.2988   47.8294 C   0  0  0  0  0  0
   25.0469   32.2887   48.5804 N   0  3  0  0  0  0
   25.1226   33.6645   47.8845 C   0  0  0  0  0  0
   24.7621   32.3673   50.0986 C   0  0  0  0  0  0
   23.4022   33.0226   50.4217 C   0  0  0  0  0  0
   23.1284   33.0780   51.9260 C   0  0  0  0  0  0
   24.1634   33.8263   52.5697 O   0  0  0  0  0  0
   24.3524   33.8857   53.9176 C   0  0  0  0  0  0
   25.4033   34.3257   54.3776 O   0  0  0  0  0  0
   23.2482   33.4270   54.6434 N   0  0  0  0  0  0
   23.1370   33.1250   56.0094 C   0  0  0  0  0  0
   24.2143   33.1248   56.9090 C   0  0  0  0  0  0
   24.0253   32.7062   58.2246 C   0  0  0  0  0  0
   22.7705   32.2714   58.6521 C   0  0  0  0  0  0
   21.6863   32.2743   57.7701 C   0  0  0  0  0  0
   20.3025   31.8402   58.2496 C   0  0  0  0  0  0
   19.9634   30.4477   57.9026 N   0  0  0  0  0  0
   19.4463   30.2402   56.6192 N   0  0  0  0  0  0
   19.1308   29.0660   56.1704 C   0  0  0  0  0  0
   19.3736   27.9499   57.0773 C   0  0  0  0  0  0
   19.8766   28.1437   58.3179 C   0  0  0  0  0  0
   20.2104   29.4566   58.8326 C   0  0  0  0  0  0
   20.6463   29.6206   59.9751 O   0  0  0  0  0  0
   18.5497   28.8548   54.8168 C   0  0  0  0  0  0
   18.0818   27.5994   54.3835 C   0  0  0  0  0  0
   17.5074   27.4408   53.1218 C   0  0  0  0  0  0
   17.0467   26.2296   52.7384 F   0  0  0  0  0  0
   17.4033   28.5299   52.2618 C   0  0  0  0  0  0
   17.8673   29.7781   52.6646 C   0  0  0  0  0  0
   17.7609   30.8419   51.8371 F   0  0  0  0  0  0
   18.4356   29.9375   53.9275 C   0  0  0  0  0  0
   21.8747   32.7140   56.4546 C   0  0  0  0  0  0
   24.1876   30.3383   48.3460 H   0  0  0  0  0  0
   24.5150   31.2115   46.8123 H   0  0  0  0  0  0
   23.1151   31.6971   47.8315 H   0  0  0  0  0  0
   25.8108   34.2890   48.4583 H   0  0  0  0  0  0
   24.1211   34.0936   47.8521 H   0  0  0  0  0  0
   25.5049   33.4937   46.8770 H   0  0  0  0  0  0
   24.8307   31.3415   50.4685 H   0  0  0  0  0  0
   25.6021   32.9259   50.5162 H   0  0  0  0  0  0
   23.3634   34.0403   50.0275 H   0  0  0  0  0  0
   22.5892   32.4739   49.9457 H   0  0  0  0  0  0
   22.1627   33.5458   52.1190 H   0  0  0  0  0  0
   23.0888   32.0635   52.3319 H   0  0  0  0  0  0
   22.4154   33.2522   54.1019 H   0  0  0  0  0  0
   25.2089   33.4237   56.6125 H   0  0  0  0  0  0
   24.8630   32.7065   58.9086 H   0  0  0  0  0  0
   22.6414   31.9261   59.6686 H   0  0  0  0  0  0
   20.2139   32.0303   59.3222 H   0  0  0  0  0  0
   19.5576   32.5036   57.8026 H   0  0  0  0  0  0
   19.1728   26.9292   56.7918 H   0  0  0  0  0  0
   20.0565   27.2935   58.9600 H   0  0  0  0  0  0
   18.1260   26.7262   55.0106 H   0  0  0  0  0  0
   16.9594   28.4049   51.2856 H   0  0  0  0  0  0
   18.7785   30.9226   54.2072 H   0  0  0  0  0  0
   21.0345   32.6999   55.7730 H   0  0  0  0  0  0
   25.9892   31.8985   48.5302 H   0  0  0  0  0  0
  1  2  1  0  0  0
  1 33  1  0  0  0
  1 34  1  0  0  0
  1 35  1  0  0  0
  2  3  1  0  0  0
  2  4  1  0  0  0
  2 57  1  0  0  0
  3 36  1  0  0  0
  3 37  1  0  0  0
  3 38  1  0  0  0
  4  5  1  0  0  0
  4 39  1  0  0  0
  4 40  1  0  0  0
  5  6  1  0  0  0
  5 41  1  0  0  0
  5 42  1  0  0  0
  6  7  1  0  0  0
  6 43  1  0  0  0
  6 44  1  0  0  0
  7  8  1  0  0  0
  8  9  2  0  0  0
  8 10  1  0  0  0
 10 11  1  0  0  0
 10 45  1  0  0  0
 11 12  2  0  0  0
 11 32  1  0  0  0
 12 13  1  0  0  0
 12 46  1  0  0  0
 13 14  2  0  0  0
 13 47  1  0  0  0
 14 15  1  0  0  0
 14 48  1  0  0  0
 15 16  1  0  0  0
 15 32  2  0  0  0
 16 17  1  0  0  0
 16 49  1  0  0  0
 16 50  1  0  0  0
 17 18  1  0  0  0
 17 22  1  0  0  0
 18 19  2  0  0  0
 19 20  1  0  0  0
 19 24  1  0  0  0
 20 21  2  0  0  0
 20 51  1  0  0  0
 21 22  1  0  0  0
 21 52  1  0  0  0
 22 23  2  0  0  0
 24 25  2  0  0  0
 24 31  1  0  0  0
 25 26  1  0  0  0
 25 53  1  0  0  0
 26 27  1  0  0  0
 26 28  2  0  0  0
 28 29  1  0  0  0
 28 54  1  0  0  0
 29 30  1  0  0  0
 29 31  2  0  0  0
 31 55  1  0  0  0
 32 56  1  0  0  0
M  CHG  1   2   1
M  END
> <s_user_Name>
CHEMBL3402743_42

> <IC50[nM]>
42

$$$$
