CHEMBL3402748_5300
                    3D
 Schrodinger Suite 2020-3.
 44 47  0  0  1  0            999 V2000
   24.3564   33.6113   52.8448 C   0  0  0  0  0  0
   23.0183   33.4975   52.5099 C   0  0  0  0  0  0
   22.3767   33.2602   53.6894 N   0  0  0  0  0  0
   23.3432   33.2295   54.6627 C   0  0  0  0  0  0
   24.5366   33.4320   54.1451 N   0  0  0  0  0  0
   23.0804   32.9514   56.1082 C   0  0  0  0  0  0
   24.1299   32.9871   57.0396 C   0  0  0  0  0  0
   23.9111   32.6334   58.3678 C   0  0  0  0  0  0
   22.6434   32.2299   58.7760 C   0  0  0  0  0  0
   21.5787   32.2132   57.8761 C   0  0  0  0  0  0
   20.1881   31.7866   58.3387 C   0  0  0  0  0  0
   19.8602   30.4029   57.9603 N   0  0  0  0  0  0
   19.3499   30.2301   56.6724 N   0  0  0  0  0  0
   19.0474   29.0660   56.1901 C   0  0  0  0  0  0
   19.3238   27.9262   57.0522 C   0  0  0  0  0  0
   19.8480   28.0844   58.2899 C   0  0  0  0  0  0
   20.1660   29.3879   58.8437 C   0  0  0  0  0  0
   20.6457   29.5266   59.9726 O   0  0  0  0  0  0
   18.4259   28.8961   54.8518 C   0  0  0  0  0  0
   18.2460   27.6349   54.2566 C   0  0  0  0  0  0
   17.5752   27.5079   53.0404 C   0  0  0  0  0  0
   17.3791   26.2837   52.5028 F   0  0  0  0  0  0
   17.0894   28.6363   52.3852 C   0  0  0  0  0  0
   17.2733   29.8953   52.9468 C   0  0  0  0  0  0
   16.7952   30.9967   52.3254 F   0  0  0  0  0  0
   17.9353   30.0226   54.1664 C   0  0  0  0  0  0
   21.8002   32.5881   56.5482 C   0  0  0  0  0  0
   22.2516   33.6272   51.1806 C   0  0  0  0  0  0
   21.3852   33.1297   53.8181 H   0  0  0  0  0  0
   25.1266   33.2707   56.7329 H   0  0  0  0  0  0
   24.7309   32.6529   59.0725 H   0  0  0  0  0  0
   22.4875   31.9256   59.8004 H   0  0  0  0  0  0
   20.0883   31.9468   59.4152 H   0  0  0  0  0  0
   19.4496   32.4622   57.9040 H   0  0  0  0  0  0
   19.1182   26.9124   56.7412 H   0  0  0  0  0  0
   20.0418   27.2166   58.9026 H   0  0  0  0  0  0
   18.6020   26.7265   54.7163 H   0  0  0  0  0  0
   16.5637   28.5315   51.4477 H   0  0  0  0  0  0
   18.0368   31.0133   54.5841 H   0  0  0  0  0  0
   20.9726   32.5554   55.8558 H   0  0  0  0  0  0
   25.0887   33.8206   52.0791 H   0  0  0  0  0  0
   21.1887   33.4612   51.3559 H   0  0  0  0  0  0
   22.4001   34.6264   50.7710 H   0  0  0  0  0  0
   22.6227   32.8861   50.4728 H   0  0  0  0  0  0
  1  2  2  0  0  0
  1  5  1  0  0  0
  1 41  1  0  0  0
  2 28  1  0  0  0
  2  3  1  0  0  0
  3 29  1  0  0  0
  3  4  1  0  0  0
  4  6  1  0  0  0
  4  5  2  0  0  0
  6  7  2  0  0  0
  6 27  1  0  0  0
  7  8  1  0  0  0
  7 30  1  0  0  0
  8  9  2  0  0  0
  8 31  1  0  0  0
  9 10  1  0  0  0
  9 32  1  0  0  0
 10 11  1  0  0  0
 10 27  2  0  0  0
 11 12  1  0  0  0
 11 33  1  0  0  0
 11 34  1  0  0  0
 12 13  1  0  0  0
 12 17  1  0  0  0
 13 14  2  0  0  0
 14 15  1  0  0  0
 14 19  1  0  0  0
 15 16  2  0  0  0
 15 35  1  0  0  0
 16 17  1  0  0  0
 16 36  1  0  0  0
 17 18  2  0  0  0
 19 20  2  0  0  0
 19 26  1  0  0  0
 20 21  1  0  0  0
 20 37  1  0  0  0
 21 22  1  0  0  0
 21 23  2  0  0  0
 23 24  1  0  0  0
 23 38  1  0  0  0
 24 25  1  0  0  0
 24 26  2  0  0  0
 26 39  1  0  0  0
 27 40  1  0  0  0
 28 42  1  0  0  0
 28 43  1  0  0  0
 28 44  1  0  0  0
M  END
> <s_user_Name>
CHEMBL3402748_5300

> <IC50[nM]>
5300

$$$$
