CHEMBL3402756_2.7
                    3D
 Schrodinger Suite 2020-3.
 61 64  0  0  1  0            999 V2000
   22.9982   29.9362   47.9072 C   0  0  0  0  0  0
   24.3278   30.6778   48.1609 N   0  3  0  0  0  0
   25.2664   30.5513   46.9393 C   0  0  0  0  0  0
   24.0978   32.1445   48.6051 C   0  0  0  0  0  0
   25.3345   32.6707   49.3599 C   0  0  0  0  0  0
   25.1667   34.0667   49.9645 C   0  0  0  0  0  0
   23.9434   34.1323   50.6770 O   0  0  0  0  0  0
   23.8842   33.7706   52.0053 C   0  0  0  0  0  0
   24.9032   33.9262   52.9577 C   0  0  0  0  0  0
   24.7082   33.6761   54.2810 N   0  0  0  0  0  0
   23.4676   33.2411   54.6519 C   0  0  0  0  0  0
   22.4407   33.0212   53.7890 N   0  0  0  0  0  0
   22.6702   33.2865   52.4828 C   0  0  0  0  0  0
   23.2133   32.9433   56.1005 C   0  0  0  0  0  0
   24.2471   32.9703   57.0489 C   0  0  0  0  0  0
   24.0213   32.6080   58.3754 C   0  0  0  0  0  0
   22.7536   32.2027   58.7775 C   0  0  0  0  0  0
   21.6963   32.1902   57.8694 C   0  0  0  0  0  0
   20.2957   31.7807   58.3139 C   0  0  0  0  0  0
   19.9551   30.3978   57.9357 N   0  0  0  0  0  0
   19.4349   30.2277   56.6502 N   0  0  0  0  0  0
   19.0827   29.0695   56.1873 C   0  0  0  0  0  0
   19.3170   27.9301   57.0633 C   0  0  0  0  0  0
   19.8474   28.0856   58.2968 C   0  0  0  0  0  0
   20.1991   29.3867   58.8373 C   0  0  0  0  0  0
   20.6471   29.5265   59.9760 O   0  0  0  0  0  0
   18.4608   28.9036   54.8502 C   0  0  0  0  0  0
   18.0110   30.0386   54.1489 C   0  0  0  0  0  0
   17.3558   29.9185   52.9254 C   0  0  0  0  0  0
   16.9185   31.0287   52.2852 F   0  0  0  0  0  0
   17.1385   28.6589   52.3755 C   0  0  0  0  0  0
   17.5843   27.5222   53.0461 C   0  0  0  0  0  0
   17.3561   26.2982   52.5187 F   0  0  0  0  0  0
   18.2471   27.6433   54.2679 C   0  0  0  0  0  0
   21.9285   32.5770   56.5496 C   0  0  0  0  0  0
   22.4084   29.9823   48.8233 H   0  0  0  0  0  0
   23.2350   28.9005   47.6614 H   0  0  0  0  0  0
   22.4853   30.4335   47.0812 H   0  0  0  0  0  0
   26.2201   31.0264   47.1753 H   0  0  0  0  0  0
   24.7849   31.0399   46.0894 H   0  0  0  0  0  0
   25.4169   29.4867   46.7506 H   0  0  0  0  0  0
   23.8475   32.7233   47.7129 H   0  0  0  0  0  0
   23.2308   32.1204   49.2703 H   0  0  0  0  0  0
   25.5937   31.9729   50.1566 H   0  0  0  0  0  0
   26.1821   32.7267   48.6768 H   0  0  0  0  0  0
   26.0431   34.3269   50.5594 H   0  0  0  0  0  0
   25.1075   34.8007   49.1596 H   0  0  0  0  0  0
   25.8727   34.3172   52.6928 H   0  0  0  0  0  0
   21.8471   33.1264   51.8062 H   0  0  0  0  0  0
   25.2516   33.2553   56.7722 H   0  0  0  0  0  0
   24.8402   32.6301   59.0814 H   0  0  0  0  0  0
   22.5933   31.8934   59.7997 H   0  0  0  0  0  0
   20.1839   31.9493   59.3885 H   0  0  0  0  0  0
   19.5726   32.4652   57.8639 H   0  0  0  0  0  0
   19.0791   26.9217   56.7594 H   0  0  0  0  0  0
   20.0182   27.2186   58.9202 H   0  0  0  0  0  0
   18.1470   31.0302   54.5541 H   0  0  0  0  0  0
   16.6177   28.5582   51.4351 H   0  0  0  0  0  0
   18.5720   26.7303   54.7431 H   0  0  0  0  0  0
   21.0976   32.5492   55.8598 H   0  0  0  0  0  0
   24.7827   30.2113   48.9368 H   0  0  0  0  0  0
  1  2  1  0  0  0
  1 36  1  0  0  0
  1 37  1  0  0  0
  1 38  1  0  0  0
  2  3  1  0  0  0
  2  4  1  0  0  0
  2 61  1  0  0  0
  3 39  1  0  0  0
  3 40  1  0  0  0
  3 41  1  0  0  0
  4  5  1  0  0  0
  4 42  1  0  0  0
  4 43  1  0  0  0
  5  6  1  0  0  0
  5 44  1  0  0  0
  5 45  1  0  0  0
  6  7  1  0  0  0
  6 46  1  0  0  0
  6 47  1  0  0  0
  7  8  1  0  0  0
  8  9  2  0  0  0
  8 13  1  0  0  0
  9 10  1  0  0  0
  9 48  1  0  0  0
 10 11  2  0  0  0
 11 12  1  0  0  0
 11 14  1  0  0  0
 12 13  2  0  0  0
 13 49  1  0  0  0
 14 15  2  0  0  0
 14 35  1  0  0  0
 15 16  1  0  0  0
 15 50  1  0  0  0
 16 17  2  0  0  0
 16 51  1  0  0  0
 17 18  1  0  0  0
 17 52  1  0  0  0
 18 19  1  0  0  0
 18 35  2  0  0  0
 19 20  1  0  0  0
 19 53  1  0  0  0
 19 54  1  0  0  0
 20 21  1  0  0  0
 20 25  1  0  0  0
 21 22  2  0  0  0
 22 23  1  0  0  0
 22 27  1  0  0  0
 23 24  2  0  0  0
 23 55  1  0  0  0
 24 25  1  0  0  0
 24 56  1  0  0  0
 25 26  2  0  0  0
 27 28  2  0  0  0
 27 34  1  0  0  0
 28 29  1  0  0  0
 28 57  1  0  0  0
 29 30  1  0  0  0
 29 31  2  0  0  0
 31 32  1  0  0  0
 31 58  1  0  0  0
 32 33  1  0  0  0
 32 34  2  0  0  0
 34 59  1  0  0  0
 35 60  1  0  0  0
M  CHG  1   2   1
M  END
> <s_user_Name>
CHEMBL3402756_2.7

> <IC50[nM]>
2.7

$$$$
