CHEMBL3402762_1
                    3D
 Schrodinger Suite 2020-3.
 66 70  0  0  1  0            999 V2000
   25.2972   29.3647   46.7015 C   0  0  0  0  0  0
   25.0472   30.5455   47.6646 N   0  3  2  0  0  0
   23.6340   30.4434   48.2818 C   0  0  0  0  0  0
   23.4401   31.5920   49.2829 C   0  0  0  0  0  0
   23.6806   32.9771   48.6432 C   0  0  1  0  0  0
   23.5016   34.1241   49.6598 C   0  0  0  0  0  0
   24.4712   34.0336   50.7092 O   0  0  0  0  0  0
   24.0941   33.7587   52.0109 C   0  0  0  0  0  0
   25.0463   33.9328   53.0156 C   0  0  0  0  0  0
   24.7792   33.7416   54.3338 N   0  0  0  0  0  0
   23.5184   33.3355   54.6583 C   0  0  0  0  0  0
   22.5278   33.1163   53.7486 N   0  0  0  0  0  0
   22.8299   33.3247   52.4399 C   0  0  0  0  0  0
   23.2238   33.0313   56.1029 C   0  0  0  0  0  0
   24.2415   33.0442   57.0710 C   0  0  0  0  0  0
   23.9955   32.6644   58.3898 C   0  0  0  0  0  0
   22.7234   32.2550   58.7744 C   0  0  0  0  0  0
   21.6814   32.2510   57.8432 C   0  0  0  0  0  0
   20.2776   31.8222   58.2633 C   0  0  0  0  0  0
   19.9596   30.4283   57.9055 N   0  0  0  0  0  0
   19.5057   30.2203   56.5990 N   0  0  0  0  0  0
   19.2468   29.0387   56.1349 C   0  0  0  0  0  0
   19.4363   27.9257   57.0492 C   0  0  0  0  0  0
   19.8875   28.1176   58.3104 C   0  0  0  0  0  0
   20.2068   29.4347   58.8316 C   0  0  0  0  0  0
   20.6455   29.5966   59.9728 O   0  0  0  0  0  0
   18.7906   28.8114   54.7456 C   0  0  0  0  0  0
   19.1078   29.7541   53.7518 C   0  0  0  0  0  0
   18.7040   29.5653   52.4326 C   0  0  0  0  0  0
   17.9727   28.4346   52.0806 C   0  0  0  0  0  0
   17.6452   27.4857   53.0540 C   0  0  0  0  0  0
   18.0626   27.6673   54.3751 C   0  0  0  0  0  0
   16.8662   26.3141   52.6780 C   0  0  0  0  0  0
   16.2469   25.3833   52.3771 N   0  0  0  0  0  0
   21.9323   32.6609   56.5280 C   0  0  0  0  0  0
   25.0622   33.0303   47.9539 C   0  0  0  0  0  0
   25.2640   31.8925   46.9387 C   0  0  0  0  0  0
   25.1789   28.4422   47.2750 H   0  0  0  0  0  0
   26.3189   29.4533   46.3281 H   0  0  0  0  0  0
   24.5692   29.4223   45.8884 H   0  0  0  0  0  0
   22.9124   30.4809   47.4607 H   0  0  0  0  0  0
   23.5641   29.4777   48.7758 H   0  0  0  0  0  0
   24.1182   31.4437   50.1259 H   0  0  0  0  0  0
   22.4311   31.5422   49.6918 H   0  0  0  0  0  0
   22.9233   33.1220   47.8691 H   0  0  0  0  0  0
   23.6730   35.0747   49.1549 H   0  0  0  0  0  0
   22.4649   34.1812   49.9843 H   0  0  0  0  0  0
   26.0449   34.2630   52.7644 H   0  0  0  0  0  0
   22.0200   33.1298   51.7544 H   0  0  0  0  0  0
   25.2505   33.3245   56.8032 H   0  0  0  0  0  0
   24.8048   32.6723   59.1083 H   0  0  0  0  0  0
   22.5475   31.9264   59.7879 H   0  0  0  0  0  0
   20.1415   32.0069   59.3313 H   0  0  0  0  0  0
   19.5506   32.4823   57.7863 H   0  0  0  0  0  0
   19.2477   26.9076   56.7408 H   0  0  0  0  0  0
   20.0324   27.2661   58.9593 H   0  0  0  0  0  0
   19.6758   30.6403   53.9934 H   0  0  0  0  0  0
   18.9589   30.2997   51.6786 H   0  0  0  0  0  0
   17.6668   28.3038   51.0519 H   0  0  0  0  0  0
   17.7985   26.9210   55.1130 H   0  0  0  0  0  0
   21.1162   32.6438   55.8207 H   0  0  0  0  0  0
   25.8511   32.9816   48.7062 H   0  0  0  0  0  0
   25.1907   33.9891   47.4494 H   0  0  0  0  0  0
   24.5527   31.9411   46.1113 H   0  0  0  0  0  0
   26.2809   31.8898   46.5439 H   0  0  0  0  0  0
   25.7364   30.5092   48.4103 H   0  0  0  0  0  0
  1  2  1  0  0  0
  1 38  1  0  0  0
  1 39  1  0  0  0
  1 40  1  0  0  0
  2  3  1  0  0  0
  2 37  1  0  0  0
  2 66  1  0  0  0
  3  4  1  0  0  0
  3 41  1  0  0  0
  3 42  1  0  0  0
  4  5  1  0  0  0
  4 43  1  0  0  0
  4 44  1  0  0  0
  5  6  1  0  0  0
  5 36  1  0  0  0
  5 45  1  0  0  0
  6  7  1  0  0  0
  6 46  1  0  0  0
  6 47  1  0  0  0
  7  8  1  0  0  0
  8  9  2  0  0  0
  8 13  1  0  0  0
  9 10  1  0  0  0
  9 48  1  0  0  0
 10 11  2  0  0  0
 11 12  1  0  0  0
 11 14  1  0  0  0
 12 13  2  0  0  0
 13 49  1  0  0  0
 14 15  2  0  0  0
 14 35  1  0  0  0
 15 16  1  0  0  0
 15 50  1  0  0  0
 16 17  2  0  0  0
 16 51  1  0  0  0
 17 18  1  0  0  0
 17 52  1  0  0  0
 18 19  1  0  0  0
 18 35  2  0  0  0
 19 20  1  0  0  0
 19 53  1  0  0  0
 19 54  1  0  0  0
 20 21  1  0  0  0
 20 25  1  0  0  0
 21 22  2  0  0  0
 22 23  1  0  0  0
 22 27  1  0  0  0
 23 24  2  0  0  0
 23 55  1  0  0  0
 24 25  1  0  0  0
 24 56  1  0  0  0
 25 26  2  0  0  0
 27 28  2  0  0  0
 27 32  1  0  0  0
 28 29  1  0  0  0
 28 57  1  0  0  0
 29 30  2  0  0  0
 29 58  1  0  0  0
 30 31  1  0  0  0
 30 59  1  0  0  0
 31 32  2  0  0  0
 31 33  1  0  0  0
 32 60  1  0  0  0
 33 34  3  0  0  0
 35 61  1  0  0  0
 36 37  1  0  0  0
 36 62  1  0  0  0
 36 63  1  0  0  0
 37 64  1  0  0  0
 37 65  1  0  0  0
M  CHG  1   2   1
M  END
> <s_user_Name>
CHEMBL3402762_1

> <IC50[nM]>
1

$$$$
