@<TRIPOS>MOLECULE
CHEMBL3402743_42
57   59    1
SMALL
USER_CHARGES


@<TRIPOS>ATOM
      1 C1         24.1307   31.2988   47.8294 C.3       1 UNK         0.0000 
      2 N2         25.0469   32.2887   48.5804 N.4       1 UNK         0.0000 
      3 C3         25.1226   33.6645   47.8845 C.3       1 UNK         0.0000 
      4 C4         24.7621   32.3673   50.0986 C.3       1 UNK         0.0000 
      5 C5         23.4022   33.0226   50.4217 C.3       1 UNK         0.0000 
      6 C6         23.1284   33.0780   51.9260 C.3       1 UNK         0.0000 
      7 O7         24.1634   33.8263   52.5697 O.3       1 UNK         0.0000 
      8 C8         24.3524   33.8857   53.9176 C.2       1 UNK         0.0000 
      9 O9         25.4033   34.3257   54.3776 O.2       1 UNK         0.0000 
     10 N10        23.2482   33.4270   54.6434 N.am      1 UNK         0.0000 
     11 C11        23.1370   33.1250   56.0094 C.ar      1 UNK         0.0000 
     12 C12        24.2143   33.1248   56.9090 C.ar      1 UNK         0.0000 
     13 C13        24.0253   32.7062   58.2246 C.ar      1 UNK         0.0000 
     14 C14        22.7705   32.2714   58.6521 C.ar      1 UNK         0.0000 
     15 C15        21.6863   32.2743   57.7701 C.ar      1 UNK         0.0000 
     16 C16        20.3025   31.8402   58.2496 C.3       1 UNK         0.0000 
     17 N17        19.9634   30.4477   57.9026 N.pl3     1 UNK         0.0000 
     18 N18        19.4463   30.2402   56.6192 N.2       1 UNK         0.0000 
     19 C19        19.1308   29.0660   56.1704 C.ar      1 UNK         0.0000 
     20 C20        19.3736   27.9499   57.0773 C.ar      1 UNK         0.0000 
     21 C21        19.8766   28.1437   58.3179 C.ar      1 UNK         0.0000 
     22 C22        20.2104   29.4566   58.8326 C.ar      1 UNK         0.0000 
     23 O23        20.6463   29.6206   59.9751 O.2       1 UNK         0.0000 
     24 C24        18.5497   28.8548   54.8168 C.ar      1 UNK         0.0000 
     25 C25        18.0818   27.5994   54.3835 C.ar      1 UNK         0.0000 
     26 C26        17.5074   27.4408   53.1218 C.ar      1 UNK         0.0000 
     27 F27        17.0467   26.2296   52.7384 F         1 UNK         0.0000 
     28 C28        17.4033   28.5299   52.2618 C.ar      1 UNK         0.0000 
     29 C29        17.8673   29.7781   52.6646 C.ar      1 UNK         0.0000 
     30 F30        17.7609   30.8419   51.8371 F         1 UNK         0.0000 
     31 C31        18.4356   29.9375   53.9275 C.ar      1 UNK         0.0000 
     32 C32        21.8747   32.7140   56.4546 C.ar      1 UNK         0.0000 
     33 H33        24.1876   30.3383   48.3460 H         1 UNK         0.0000 
     34 H34        24.5150   31.2115   46.8123 H         1 UNK         0.0000 
     35 H35        23.1151   31.6971   47.8315 H         1 UNK         0.0000 
     36 H36        25.8108   34.2890   48.4583 H         1 UNK         0.0000 
     37 H37        24.1211   34.0936   47.8521 H         1 UNK         0.0000 
     38 H38        25.5049   33.4937   46.8770 H         1 UNK         0.0000 
     39 H39        24.8307   31.3415   50.4685 H         1 UNK         0.0000 
     40 H40        25.6021   32.9259   50.5162 H         1 UNK         0.0000 
     41 H41        23.3634   34.0403   50.0275 H         1 UNK         0.0000 
     42 H42        22.5892   32.4739   49.9457 H         1 UNK         0.0000 
     43 H43        22.1627   33.5458   52.1190 H         1 UNK         0.0000 
     44 H44        23.0888   32.0635   52.3319 H         1 UNK         0.0000 
     45 H45        22.4154   33.2522   54.1019 H         1 UNK         0.0000 
     46 H46        25.2089   33.4237   56.6125 H         1 UNK         0.0000 
     47 H47        24.8630   32.7065   58.9086 H         1 UNK         0.0000 
     48 H48        22.6414   31.9261   59.6686 H         1 UNK         0.0000 
     49 H49        20.2139   32.0303   59.3222 H         1 UNK         0.0000 
     50 H50        19.5576   32.5036   57.8026 H         1 UNK         0.0000 
     51 H51        19.1728   26.9292   56.7918 H         1 UNK         0.0000 
     52 H52        20.0565   27.2935   58.9600 H         1 UNK         0.0000 
     53 H53        18.1260   26.7262   55.0106 H         1 UNK         0.0000 
     54 H54        16.9594   28.4049   51.2856 H         1 UNK         0.0000 
     55 H55        18.7785   30.9226   54.2072 H         1 UNK         0.0000 
     56 H56        21.0345   32.6999   55.7730 H         1 UNK         0.0000 
     57 H57        25.9892   31.8985   48.5302 H         1 UNK         0.0000 
@<TRIPOS>BOND
     1    1    2 1    
     2    1   33 1    
     3    1   34 1    
     4    1   35 1    
     5    2    3 1    
     6    2    4 1    
     7    2   57 1    
     8    3   36 1    
     9    3   37 1    
    10    3   38 1    
    11    4    5 1    
    12    4   39 1    
    13    4   40 1    
    14    5    6 1    
    15    5   41 1    
    16    5   42 1    
    17    6    7 1    
    18    6   43 1    
    19    6   44 1    
    20    7    8 1    
    21    8    9 2    
    22    8   10 am   BACKBONE|DICT|INTERRES
    23   10   11 1    
    24   10   45 1    
    25   11   12 ar   
    26   11   32 ar   
    27   12   13 ar   
    28   12   46 1    
    29   13   14 ar   
    30   13   47 1    
    31   14   15 ar   
    32   14   48 1    
    33   15   16 1    
    34   15   32 ar   
    35   16   17 1    
    36   16   49 1    
    37   16   50 1    
    38   17   18 ar   
    39   17   22 ar   
    40   18   19 ar   
    41   19   20 ar   
    42   19   24 1    
    43   20   21 ar   
    44   20   51 1    
    45   21   22 ar   
    46   21   52 1    
    47   22   23 2    
    48   24   25 ar   
    49   24   31 ar   
    50   25   26 ar   
    51   25   53 1    
    52   26   27 1    
    53   26   28 ar   
    54   28   29 ar   
    55   28   54 1    
    56   29   30 1    
    57   29   31 ar   
    58   31   55 1    
    59   32   56 1    
@<TRIPOS>SUBSTRUCTURE
     1 UNK         1 GROUP             0       ****    0 ROOT    
