@<TRIPOS>MOLECULE
CHEMBL3402756_2.7
61   64    1
SMALL
USER_CHARGES


@<TRIPOS>ATOM
      1 C1         22.9982   29.9362   47.9072 C.3       1 UNK         0.0000 
      2 N2         24.3278   30.6778   48.1609 N.4       1 UNK         0.0000 
      3 C3         25.2664   30.5513   46.9393 C.3       1 UNK         0.0000 
      4 C4         24.0978   32.1445   48.6051 C.3       1 UNK         0.0000 
      5 C5         25.3345   32.6707   49.3599 C.3       1 UNK         0.0000 
      6 C6         25.1667   34.0667   49.9645 C.3       1 UNK         0.0000 
      7 O7         23.9434   34.1323   50.6770 O.3       1 UNK         0.0000 
      8 C8         23.8842   33.7706   52.0053 C.ar      1 UNK         0.0000 
      9 C9         24.9032   33.9262   52.9577 C.ar      1 UNK         0.0000 
     10 N10        24.7082   33.6761   54.2810 N.ar      1 UNK         0.0000 
     11 C11        23.4676   33.2411   54.6519 C.ar      1 UNK         0.0000 
     12 N12        22.4407   33.0212   53.7890 N.ar      1 UNK         0.0000 
     13 C13        22.6702   33.2865   52.4828 C.ar      1 UNK         0.0000 
     14 C14        23.2133   32.9433   56.1005 C.ar      1 UNK         0.0000 
     15 C15        24.2471   32.9703   57.0489 C.ar      1 UNK         0.0000 
     16 C16        24.0213   32.6080   58.3754 C.ar      1 UNK         0.0000 
     17 C17        22.7536   32.2027   58.7775 C.ar      1 UNK         0.0000 
     18 C18        21.6963   32.1902   57.8694 C.ar      1 UNK         0.0000 
     19 C19        20.2957   31.7807   58.3139 C.3       1 UNK         0.0000 
     20 N20        19.9551   30.3978   57.9357 N.pl3     1 UNK         0.0000 
     21 N21        19.4349   30.2277   56.6502 N.2       1 UNK         0.0000 
     22 C22        19.0827   29.0695   56.1873 C.ar      1 UNK         0.0000 
     23 C23        19.3170   27.9301   57.0633 C.ar      1 UNK         0.0000 
     24 C24        19.8474   28.0856   58.2968 C.ar      1 UNK         0.0000 
     25 C25        20.1991   29.3867   58.8373 C.ar      1 UNK         0.0000 
     26 O26        20.6471   29.5265   59.9760 O.2       1 UNK         0.0000 
     27 C27        18.4608   28.9036   54.8502 C.ar      1 UNK         0.0000 
     28 C28        18.0110   30.0386   54.1489 C.ar      1 UNK         0.0000 
     29 C29        17.3558   29.9185   52.9254 C.ar      1 UNK         0.0000 
     30 F30        16.9185   31.0287   52.2852 F         1 UNK         0.0000 
     31 C31        17.1385   28.6589   52.3755 C.ar      1 UNK         0.0000 
     32 C32        17.5843   27.5222   53.0461 C.ar      1 UNK         0.0000 
     33 F33        17.3561   26.2982   52.5187 F         1 UNK         0.0000 
     34 C34        18.2471   27.6433   54.2679 C.ar      1 UNK         0.0000 
     35 C35        21.9285   32.5770   56.5496 C.ar      1 UNK         0.0000 
     36 H36        22.4084   29.9823   48.8233 H         1 UNK         0.0000 
     37 H37        23.2350   28.9005   47.6614 H         1 UNK         0.0000 
     38 H38        22.4853   30.4335   47.0812 H         1 UNK         0.0000 
     39 H39        26.2201   31.0264   47.1753 H         1 UNK         0.0000 
     40 H40        24.7849   31.0399   46.0894 H         1 UNK         0.0000 
     41 H41        25.4169   29.4867   46.7506 H         1 UNK         0.0000 
     42 H42        23.8475   32.7233   47.7129 H         1 UNK         0.0000 
     43 H43        23.2308   32.1204   49.2703 H         1 UNK         0.0000 
     44 H44        25.5937   31.9729   50.1566 H         1 UNK         0.0000 
     45 H45        26.1821   32.7267   48.6768 H         1 UNK         0.0000 
     46 H46        26.0431   34.3269   50.5594 H         1 UNK         0.0000 
     47 H47        25.1075   34.8007   49.1596 H         1 UNK         0.0000 
     48 H48        25.8727   34.3172   52.6928 H         1 UNK         0.0000 
     49 H49        21.8471   33.1264   51.8062 H         1 UNK         0.0000 
     50 H50        25.2516   33.2553   56.7722 H         1 UNK         0.0000 
     51 H51        24.8402   32.6301   59.0814 H         1 UNK         0.0000 
     52 H52        22.5933   31.8934   59.7997 H         1 UNK         0.0000 
     53 H53        20.1839   31.9493   59.3885 H         1 UNK         0.0000 
     54 H54        19.5726   32.4652   57.8639 H         1 UNK         0.0000 
     55 H55        19.0791   26.9217   56.7594 H         1 UNK         0.0000 
     56 H56        20.0182   27.2186   58.9202 H         1 UNK         0.0000 
     57 H57        18.1470   31.0302   54.5541 H         1 UNK         0.0000 
     58 H58        16.6177   28.5582   51.4351 H         1 UNK         0.0000 
     59 H59        18.5720   26.7303   54.7431 H         1 UNK         0.0000 
     60 H60        21.0976   32.5492   55.8598 H         1 UNK         0.0000 
     61 H61        24.7827   30.2113   48.9368 H         1 UNK         0.0000 
@<TRIPOS>BOND
     1    1    2 1    
     2    1   36 1    
     3    1   37 1    
     4    1   38 1    
     5    2    3 1    
     6    2    4 1    
     7    2   61 1    
     8    3   39 1    
     9    3   40 1    
    10    3   41 1    
    11    4    5 1    
    12    4   42 1    
    13    4   43 1    
    14    5    6 1    
    15    5   44 1    
    16    5   45 1    
    17    6    7 1    
    18    6   46 1    
    19    6   47 1    
    20    7    8 1    
    21    8    9 ar   
    22    8   13 ar   
    23    9   10 ar   
    24    9   48 1    
    25   10   11 ar   
    26   11   12 ar   
    27   11   14 1    
    28   12   13 ar   
    29   13   49 1    
    30   14   15 ar   
    31   14   35 ar   
    32   15   16 ar   
    33   15   50 1    
    34   16   17 ar   
    35   16   51 1    
    36   17   18 ar   
    37   17   52 1    
    38   18   19 1    
    39   18   35 ar   
    40   19   20 1    
    41   19   53 1    
    42   19   54 1    
    43   20   21 ar   
    44   20   25 ar   
    45   21   22 ar   
    46   22   23 ar   
    47   22   27 1    
    48   23   24 ar   
    49   23   55 1    
    50   24   25 ar   
    51   24   56 1    
    52   25   26 2    
    53   27   28 ar   
    54   27   34 ar   
    55   28   29 ar   
    56   28   57 1    
    57   29   30 1    
    58   29   31 ar   
    59   31   32 ar   
    60   31   58 1    
    61   32   33 1    
    62   32   34 ar   
    63   34   59 1    
    64   35   60 1    
@<TRIPOS>SUBSTRUCTURE
     1 UNK         1 GROUP             0       ****    0 ROOT    
