CHEMBL3402764_90
                    3D
 Schrodinger Suite 2020-3.
 57 59  0  0  1  0            999 V2000
   24.4983   32.6426   47.4000 C   0  0  0  0  0  0
   25.8477   33.1265   47.9776 N   0  3  0  0  0  0
   26.7282   33.7516   46.8757 C   0  0  0  0  0  0
   25.7070   34.0817   49.1846 C   0  0  0  0  0  0
   24.9669   33.4120   50.3525 C   0  0  0  0  0  0
   25.0476   34.2680   51.6221 C   0  0  0  0  0  0
   24.1442   33.7553   52.5943 O   0  0  0  0  0  0
   24.4004   33.8646   53.9094 C   0  0  0  0  0  0
   25.4439   34.3239   54.3765 O   0  0  0  0  0  0
   23.2956   33.3782   54.5987 N   0  0  0  0  0  0
   23.1427   33.0843   55.9651 C   0  0  0  0  0  0
   24.1938   33.1130   56.8977 C   0  0  0  0  0  0
   23.9701   32.7046   58.2133 C   0  0  0  0  0  0
   22.7094   32.2562   58.6081 C   0  0  0  0  0  0
   21.6523   32.2304   57.6940 C   0  0  0  0  0  0
   20.2620   31.7774   58.1408 C   0  0  0  0  0  0
   19.9517   30.3721   57.8100 N   0  0  0  0  0  0
   19.4515   30.1430   56.5234 N   0  0  0  0  0  0
   19.1719   28.9566   56.0882 C   0  0  0  0  0  0
   19.4049   27.8574   57.0122 C   0  0  0  0  0  0
   19.8897   28.0688   58.2559 C   0  0  0  0  0  0
   20.2101   29.3962   58.7559 C   0  0  0  0  0  0
   20.6471   29.5714   59.8944 O   0  0  0  0  0  0
   18.6411   28.7040   54.7248 C   0  0  0  0  0  0
   17.9457   27.5247   54.4124 C   0  0  0  0  0  0
   17.4541   27.3084   53.1266 C   0  0  0  0  0  0
   17.6594   28.2659   52.1380 C   0  0  0  0  0  0
   17.1816   28.0564   50.8899 F   0  0  0  0  0  0
   18.3519   29.4381   52.4270 C   0  0  0  0  0  0
   18.8414   29.6559   53.7125 C   0  0  0  0  0  0
   21.8740   32.6562   56.3786 C   0  0  0  0  0  0
   23.9868   32.0683   48.1732 H   0  0  0  0  0  0
   24.7173   32.0099   46.5367 H   0  0  0  0  0  0
   23.9268   33.5257   47.1104 H   0  0  0  0  0  0
   27.6879   34.0173   47.3235 H   0  0  0  0  0  0
   26.2116   34.6326   46.4901 H   0  0  0  0  0  0
   26.8650   32.9982   46.0986 H   0  0  0  0  0  0
   26.7316   34.3260   49.4693 H   0  0  0  0  0  0
   25.2033   34.9796   48.8228 H   0  0  0  0  0  0
   23.9164   33.2654   50.0932 H   0  0  0  0  0  0
   25.3859   32.4241   50.5579 H   0  0  0  0  0  0
   26.0764   34.2786   51.9887 H   0  0  0  0  0  0
   24.7726   35.2996   51.4025 H   0  0  0  0  0  0
   22.4979   33.1553   54.0205 H   0  0  0  0  0  0
   25.1884   33.4288   56.6266 H   0  0  0  0  0  0
   24.7862   32.7203   58.9219 H   0  0  0  0  0  0
   22.5539   31.9248   59.6252 H   0  0  0  0  0  0
   20.1375   31.9754   59.2077 H   0  0  0  0  0  0
   19.5167   32.4201   57.6663 H   0  0  0  0  0  0
   19.2194   26.8341   56.7260 H   0  0  0  0  0  0
   20.0661   27.2285   58.9091 H   0  0  0  0  0  0
   17.7647   26.7541   55.1486 H   0  0  0  0  0  0
   16.9208   26.3981   52.8933 H   0  0  0  0  0  0
   18.5097   30.1723   51.6504 H   0  0  0  0  0  0
   19.3813   30.5702   53.9102 H   0  0  0  0  0  0
   21.0578   32.6204   55.6701 H   0  0  0  0  0  0
   26.3475   32.3089   48.3217 H   0  0  0  0  0  0
  1  2  1  0  0  0
  1 32  1  0  0  0
  1 33  1  0  0  0
  1 34  1  0  0  0
  2  3  1  0  0  0
  2  4  1  0  0  0
  2 57  1  0  0  0
  3 35  1  0  0  0
  3 36  1  0  0  0
  3 37  1  0  0  0
  4  5  1  0  0  0
  4 38  1  0  0  0
  4 39  1  0  0  0
  5  6  1  0  0  0
  5 40  1  0  0  0
  5 41  1  0  0  0
  6  7  1  0  0  0
  6 42  1  0  0  0
  6 43  1  0  0  0
  7  8  1  0  0  0
  8  9  2  0  0  0
  8 10  1  0  0  0
 10 11  1  0  0  0
 10 44  1  0  0  0
 11 12  2  0  0  0
 11 31  1  0  0  0
 12 13  1  0  0  0
 12 45  1  0  0  0
 13 14  2  0  0  0
 13 46  1  0  0  0
 14 15  1  0  0  0
 14 47  1  0  0  0
 15 16  1  0  0  0
 15 31  2  0  0  0
 16 17  1  0  0  0
 16 48  1  0  0  0
 16 49  1  0  0  0
 17 18  1  0  0  0
 17 22  1  0  0  0
 18 19  2  0  0  0
 19 20  1  0  0  0
 19 24  1  0  0  0
 20 21  2  0  0  0
 20 50  1  0  0  0
 21 22  1  0  0  0
 21 51  1  0  0  0
 22 23  2  0  0  0
 24 25  2  0  0  0
 24 30  1  0  0  0
 25 26  1  0  0  0
 25 52  1  0  0  0
 26 27  2  0  0  0
 26 53  1  0  0  0
 27 28  1  0  0  0
 27 29  1  0  0  0
 29 30  2  0  0  0
 29 54  1  0  0  0
 30 55  1  0  0  0
 31 56  1  0  0  0
M  CHG  1   2   1
M  END
> <s_user_Name>
CHEMBL3402764_90

> <IC50[nM]>
90

$$$$
