@<TRIPOS>MOLECULE
CHEMBL3402754_40
45   48    1
SMALL
USER_CHARGES


@<TRIPOS>ATOM
      1 C1         24.6590   34.1762   50.5924 C.3       1 UNK         0.0000 
      2 C2         24.2746   33.9253   52.0374 C.ar      1 UNK         0.0000 
      3 C3         25.1740   34.1478   53.0785 C.ar      1 UNK         0.0000 
      4 N4         24.8532   33.9262   54.3784 N.ar      1 UNK         0.0000 
      5 C5         23.5930   33.4702   54.6400 C.ar      1 UNK         0.0000 
      6 N6         22.6476   33.2371   53.6867 N.ar      1 UNK         0.0000 
      7 C7         23.0058   33.4672   52.3948 C.ar      1 UNK         0.0000 
      8 C8         23.2543   33.1190   56.0657 C.ar      1 UNK         0.0000 
      9 C9         24.2471   33.1094   57.0597 C.ar      1 UNK         0.0000 
     10 C10        23.9733   32.6953   58.3618 C.ar      1 UNK         0.0000 
     11 C11        22.6941   32.2720   58.7023 C.ar      1 UNK         0.0000 
     12 C12        21.6732   32.2882   57.7495 C.ar      1 UNK         0.0000 
     13 C13        20.2574   31.8714   58.1483 C.3       1 UNK         0.0000 
     14 N14        19.9320   30.4722   57.8106 N.pl3     1 UNK         0.0000 
     15 N15        19.3972   30.2588   56.5379 N.2       1 UNK         0.0000 
     16 C16        19.0692   29.0834   56.0994 C.ar      1 UNK         0.0000 
     17 C17        19.3270   27.9712   57.0049 C.ar      1 UNK         0.0000 
     18 C18        19.8506   28.1673   58.2382 C.ar      1 UNK         0.0000 
     19 C19        20.1920   29.4850   58.7426 C.ar      1 UNK         0.0000 
     20 O20        20.6445   29.6519   59.8792 O.2       1 UNK         0.0000 
     21 C21        18.4743   28.8707   54.7531 C.ar      1 UNK         0.0000 
     22 C22        18.0358   27.6132   54.3055 C.ar      1 UNK         0.0000 
     23 C23        17.4494   27.4603   53.0498 C.ar      1 UNK         0.0000 
     24 F24        17.0192   26.2455   52.6483 F         1 UNK         0.0000 
     25 C25        17.2973   28.5621   52.2108 C.ar      1 UNK         0.0000 
     26 C26        17.7324   29.8153   52.6298 C.ar      1 UNK         0.0000 
     27 F27        17.5797   30.8932   51.8228 F         1 UNK         0.0000 
     28 C28        18.3167   29.9673   53.8856 C.ar      1 UNK         0.0000 
     29 C29        21.9564   32.7247   56.4484 C.ar      1 UNK         0.0000 
     30 H30        24.1190   33.5086   49.9195 H         1 UNK         0.0000 
     31 H31        25.7260   34.0116   50.4396 H         1 UNK         0.0000 
     32 H32        24.4303   35.2047   50.3131 H         1 UNK         0.0000 
     33 H33        26.1753   34.5025   52.8776 H         1 UNK         0.0000 
     34 H34        22.2484   33.2806   51.6443 H         1 UNK         0.0000 
     35 H35        25.2609   33.4009   56.8192 H         1 UNK         0.0000 
     36 H36        24.7626   32.6937   59.1005 H         1 UNK         0.0000 
     37 H37        22.4923   31.9266   59.7076 H         1 UNK         0.0000 
     38 H38        20.0950   32.0730   59.2091 H         1 UNK         0.0000 
     39 H39        19.5442   32.5305   57.6458 H         1 UNK         0.0000 
     40 H40        19.1172   26.9479   56.7312 H         1 UNK         0.0000 
     41 H41        20.0395   27.3195   58.8782 H         1 UNK         0.0000 
     42 H42        18.1211   26.7275   54.9114 H         1 UNK         0.0000 
     43 H43        16.8419   28.4425   51.2385 H         1 UNK         0.0000 
     44 H44        18.6407   30.9590   54.1723 H         1 UNK         0.0000 
     45 H45        21.1592   32.7249   55.7179 H         1 UNK         0.0000 
@<TRIPOS>BOND
     1    1    2 1    
     2    1   30 1    
     3    1   31 1    
     4    1   32 1    
     5    2    3 ar   
     6    2    7 ar   
     7    3    4 ar   
     8    3   33 1    
     9    4    5 ar   
    10    5    6 ar   
    11    5    8 1    
    12    6    7 ar   
    13    7   34 1    
    14    8    9 ar   
    15    8   29 ar   
    16    9   10 ar   
    17    9   35 1    
    18   10   11 ar   
    19   10   36 1    
    20   11   12 ar   
    21   11   37 1    
    22   12   13 1    
    23   12   29 ar   
    24   13   14 1    
    25   13   38 1    
    26   13   39 1    
    27   14   15 ar   
    28   14   19 ar   
    29   15   16 ar   
    30   16   17 ar   
    31   16   21 1    
    32   17   18 ar   
    33   17   40 1    
    34   18   19 ar   
    35   18   41 1    
    36   19   20 2    
    37   21   22 ar   
    38   21   28 ar   
    39   22   23 ar   
    40   22   42 1    
    41   23   24 1    
    42   23   25 ar   
    43   25   26 ar   
    44   25   43 1    
    45   26   27 1    
    46   26   28 ar   
    47   28   44 1    
    48   29   45 1    
@<TRIPOS>SUBSTRUCTURE
     1 UNK         1 GROUP             0       ****    0 ROOT    
