CHEMBL3402755_4200
                    3D
 Schrodinger Suite 2020-3.
 45 48  0  0  1  0            999 V2000
   24.9268   34.0387   50.7958 C   0  0  0  0  0  0
   24.3292   33.7968   52.1682 C   0  0  0  0  0  0
   23.0499   33.2693   52.3344 C   0  0  0  0  0  0
   22.6036   33.0410   53.6347 C   0  0  0  0  0  0
   23.4538   33.3556   54.7057 C   0  0  0  0  0  0
   24.6754   33.9192   54.4700 N   0  0  0  0  0  0
   25.1181   34.1276   53.2212 N   0  0  0  0  0  0
   23.1239   33.0265   56.1337 C   0  0  0  0  0  0
   24.1214   33.0302   57.1236 C   0  0  0  0  0  0
   23.8473   32.6424   58.4326 C   0  0  0  0  0  0
   22.5704   32.2174   58.7761 C   0  0  0  0  0  0
   21.5526   32.2075   57.8229 C   0  0  0  0  0  0
   20.1497   31.7465   58.2043 C   0  0  0  0  0  0
   19.8854   30.3397   57.8543 N   0  0  0  0  0  0
   19.4128   30.1090   56.5605 N   0  0  0  0  0  0
   19.1571   28.9176   56.1180 C   0  0  0  0  0  0
   19.4059   27.8195   57.0375 C   0  0  0  0  0  0
   19.8870   28.0345   58.2822 C   0  0  0  0  0  0
   20.1852   29.3636   58.7850 C   0  0  0  0  0  0
   20.6460   29.5449   59.9141 O   0  0  0  0  0  0
   18.6463   28.6600   54.7513 C   0  0  0  0  0  0
   17.9441   27.4851   54.4303 C   0  0  0  0  0  0
   17.4733   27.2606   53.1364 C   0  0  0  0  0  0
   16.7942   26.1288   52.8531 F   0  0  0  0  0  0
   17.7086   28.2024   52.1378 C   0  0  0  0  0  0
   18.4025   29.3727   52.4339 C   0  0  0  0  0  0
   18.6243   30.2907   51.4676 F   0  0  0  0  0  0
   18.8686   29.6005   53.7292 C   0  0  0  0  0  0
   21.8292   32.6350   56.5192 C   0  0  0  0  0  0
   25.0400   35.1100   50.6219 H   0  0  0  0  0  0
   24.2962   33.6273   50.0037 H   0  0  0  0  0  0
   25.9117   33.5709   50.7171 H   0  0  0  0  0  0
   22.4207   33.0324   51.4858 H   0  0  0  0  0  0
   21.6343   32.5922   53.7757 H   0  0  0  0  0  0
   25.1348   33.3176   56.8881 H   0  0  0  0  0  0
   24.6327   32.6583   59.1741 H   0  0  0  0  0  0
   22.3648   31.8897   59.7856 H   0  0  0  0  0  0
   19.9758   31.9310   59.2706 H   0  0  0  0  0  0
   19.4176   32.3850   57.7063 H   0  0  0  0  0  0
   19.2305   26.7935   56.7551 H   0  0  0  0  0  0
   20.0775   27.1977   58.9349 H   0  0  0  0  0  0
   17.7396   26.7272   55.1728 H   0  0  0  0  0  0
   17.3583   28.0202   51.1328 H   0  0  0  0  0  0
   19.4080   30.5144   53.9261 H   0  0  0  0  0  0
   21.0233   32.6247   55.8023 H   0  0  0  0  0  0
  1  2  1  0  0  0
  1 30  1  0  0  0
  1 31  1  0  0  0
  1 32  1  0  0  0
  2  3  2  0  0  0
  2  7  1  0  0  0
  3  4  1  0  0  0
  3 33  1  0  0  0
  4  5  2  0  0  0
  4 34  1  0  0  0
  5  6  1  0  0  0
  5  8  1  0  0  0
  6  7  2  0  0  0
  8  9  2  0  0  0
  8 29  1  0  0  0
  9 10  1  0  0  0
  9 35  1  0  0  0
 10 11  2  0  0  0
 10 36  1  0  0  0
 11 12  1  0  0  0
 11 37  1  0  0  0
 12 13  1  0  0  0
 12 29  2  0  0  0
 13 14  1  0  0  0
 13 38  1  0  0  0
 13 39  1  0  0  0
 14 15  1  0  0  0
 14 19  1  0  0  0
 15 16  2  0  0  0
 16 17  1  0  0  0
 16 21  1  0  0  0
 17 18  2  0  0  0
 17 40  1  0  0  0
 18 19  1  0  0  0
 18 41  1  0  0  0
 19 20  2  0  0  0
 21 22  2  0  0  0
 21 28  1  0  0  0
 22 23  1  0  0  0
 22 42  1  0  0  0
 23 24  1  0  0  0
 23 25  2  0  0  0
 25 26  1  0  0  0
 25 43  1  0  0  0
 26 27  1  0  0  0
 26 28  2  0  0  0
 28 44  1  0  0  0
 29 45  1  0  0  0
M  END
> <s_user_Name>
CHEMBL3402755_4200

> <IC50[nM]>
4200

$$$$
