
                    3D
 Schrodinger Suite 2020-3.
 71 73  0  0  1  0            999 V2000
   24.3930   31.0600   48.1950 C   0  0  0  0  0  0
   24.5320   32.4350   47.5180 C   0  0  0  0  0  0
   25.8470   33.1260   47.9680 N   0  0  0  0  0  0
   26.5610   33.7970   46.7640 C   0  0  0  0  0  0
   27.9650   34.3060   47.1320 C   0  0  0  0  0  0
   25.7060   34.0800   49.1800 C   0  0  0  0  0  0
   24.9920   33.4380   50.3750 C   0  0  0  0  0  0
   25.0660   34.3430   51.6090 C   0  0  0  0  0  0
   24.1180   33.9030   52.5720 O   0  0  0  0  0  0
   24.3860   33.9250   53.8860 C   0  0  3  0  0  0
   25.4470   34.3250   54.3750 O   0  0  0  0  0  0
   23.2710   33.4380   54.5530 N   0  0  3  0  0  0
   23.1060   33.1250   55.9110 C   0  0  3  0  0  0
   24.1480   33.1260   56.8530 C   0  0  0  0  0  0
   23.9050   32.7380   58.1700 C   0  0  0  0  0  0
   22.6220   32.3500   58.5590 C   0  0  0  0  0  0
   21.5760   32.3410   57.6350 C   0  0  3  0  0  0
   20.1640   31.9340   58.0660 C   0  0  0  0  0  0
   19.8550   30.5220   57.7690 N   0  0  3  0  0  0
   19.5510   30.2570   56.4650 N   0  0  0  0  0  0
   19.2600   29.1100   55.9740 C   0  0  3  0  0  0
   19.1560   27.8220   56.8120 C   0  0  0  0  0  0
   20.1070   27.8030   58.3760 S   0  0  0  0  0  0
   20.2030   29.5870   58.7620 C   0  0  3  0  0  0
   20.6460   29.8840   59.8760 O   0  0  0  0  0  0
   18.9920   28.9830   54.5230 C   0  0  3  0  0  0
   19.6330   29.8250   53.6060 C   0  0  0  0  0  0
   19.4010   29.7030   52.2390 C   0  0  0  0  0  0
   18.5160   28.7300   51.7480 C   0  0  3  0  0  0
   18.2450   28.5620   50.4000 O   0  0  0  0  0  0
   19.1050   29.1560   49.4370 C   0  0  0  0  0  0
   17.8610   27.8800   52.6510 C   0  0  3  0  0  0
   16.9970   26.9400   52.1190 O   0  0  0  0  0  0
   16.4630   25.9230   52.9610 C   0  0  0  0  0  0
   18.1080   28.0140   54.0300 C   0  0  0  0  0  0
   21.8260   32.7280   56.3130 C   0  0  0  0  0  0
   23.5730   30.4980   47.7500 H   0  0  0  0  0  0
   24.1800   31.1330   49.2600 H   0  0  0  0  0  0
   25.3030   30.4600   48.0820 H   0  0  0  0  0  0
   24.5870   32.2960   46.4350 H   0  0  0  0  0  0
   23.7060   33.1250   47.7220 H   0  0  0  0  0  0
   26.6370   33.0230   45.9990 H   0  0  0  0  0  0
   25.9020   34.5930   46.4110 H   0  0  0  0  0  0
   28.5050   34.6090   46.2370 H   0  0  0  0  0  0
   28.5530   33.5270   47.6200 H   0  0  0  0  0  0
   27.9290   35.1720   47.7910 H   0  0  0  0  0  0
   26.7290   34.3260   49.4690 H   0  0  0  0  0  0
   25.2000   34.9800   48.8210 H   0  0  0  0  0  0
   23.9440   33.2600   50.1310 H   0  0  0  0  0  0
   25.4420   32.4740   50.6170 H   0  0  0  0  0  0
   26.0880   34.3350   51.9940 H   0  0  0  0  0  0
   24.8320   35.3720   51.3380 H   0  0  0  0  0  0
   22.4690   33.2710   53.9670 H   0  0  0  0  0  0
   25.1540   33.4070   56.5880 H   0  0  0  0  0  0
   24.7110   32.7470   58.8870 H   0  0  0  0  0  0
   22.4450   32.0460   59.5780 H   0  0  0  0  0  0
   20.0050   32.1810   59.1200 H   0  0  0  0  0  0
   19.4400   32.5650   57.5480 H   0  0  0  0  0  0
   19.5360   26.9750   56.2390 H   0  0  0  0  0  0
   18.1120   27.6210   57.0580 H   0  0  0  0  0  0
   20.3230   30.5830   53.9470 H   0  0  0  0  0  0
   19.9140   30.3790   51.5730 H   0  0  0  0  0  0
   18.8120   28.8230   48.4420 H   0  0  0  0  0  0
   20.1450   28.8590   49.5900 H   0  0  0  0  0  0
   19.0320   30.2450   49.4520 H   0  0  0  0  0  0
   15.8020   26.3400   53.7200 H   0  0  0  0  0  0
   17.2620   25.3570   53.4430 H   0  0  0  0  0  0
   15.8750   25.2290   52.3600 H   0  0  0  0  0  0
   17.6030   27.3570   54.7210 H   0  0  0  0  0  0
   21.0160   32.7070   55.5990 H   0  0  0  0  0  0
   26.4630   32.3740   48.2750 H   0  0  0  0  0  0
  1  2  1  0  0  0
  1 37  1  0  0  0
  1 38  1  0  0  0
  1 39  1  0  0  0
  2  3  1  0  0  0
  2 40  1  0  0  0
  2 41  1  0  0  0
  3  4  1  0  0  0
  3  6  1  0  0  0
  3 71  1  0  0  0
  4  5  1  0  0  0
  4 42  1  0  0  0
  4 43  1  0  0  0
  5 44  1  0  0  0
  5 45  1  0  0  0
  5 46  1  0  0  0
  6  7  1  0  0  0
  6 47  1  0  0  0
  6 48  1  0  0  0
  7  8  1  0  0  0
  7 49  1  0  0  0
  7 50  1  0  0  0
  8  9  1  0  0  0
  8 51  1  0  0  0
  8 52  1  0  0  0
  9 10  1  0  0  0
 10 11  1  0  0  0
 10 12  1  0  0  0
 12 13  1  0  0  0
 12 53  1  0  0  0
 13 14  1  0  0  0
 13 36  1  0  0  0
 14 15  1  0  0  0
 14 54  1  0  0  0
 15 16  1  0  0  0
 15 55  1  0  0  0
 16 17  1  0  0  0
 16 56  1  0  0  0
 17 18  1  0  0  0
 17 36  1  0  0  0
 18 19  1  0  0  0
 18 57  1  0  0  0
 18 58  1  0  0  0
 19 20  1  0  0  0
 19 24  1  0  0  0
 20 21  1  0  0  0
 21 22  1  0  0  0
 21 26  1  0  0  0
 22 23  1  0  0  0
 22 59  1  0  0  0
 22 60  1  0  0  0
 23 24  1  0  0  0
 24 25  1  0  0  0
 26 27  1  0  0  0
 26 35  1  0  0  0
 27 28  1  0  0  0
 27 61  1  0  0  0
 28 29  1  0  0  0
 28 62  1  0  0  0
 29 30  1  0  0  0
 29 32  1  0  0  0
 30 31  1  0  0  0
 31 63  1  0  0  0
 31 64  1  0  0  0
 31 65  1  0  0  0
 32 33  1  0  0  0
 32 35  1  0  0  0
 33 34  1  0  0  0
 34 66  1  0  0  0
 34 67  1  0  0  0
 34 68  1  0  0  0
 35 69  1  0  0  0
 36 70  1  0  0  0
M  END
> <s_pdb_PDB_TITLE>
MX MODEL

> <i_pdb_PDB_Model>
1

> <s_pdb_PDB_format_version>
3.0

$$$$
