CHEMBL3402752_30000
                    3D
 Schrodinger Suite 2020-3.
 43 46  0  0  1  0            999 V2000
   25.8234   33.9368   52.0874 C   0  0  0  0  0  0
   24.5773   33.5529   52.8371 C   0  0  0  0  0  0
   24.5033   33.5215   54.1481 N   0  0  0  0  0  0
   23.3141   33.1507   54.6047 C   0  0  0  0  0  0
   22.3783   32.9204   53.5909 C   0  0  0  0  0  0
   23.1081   33.1260   52.0358 S   0  0  0  0  0  0
   23.0782   32.9428   56.0753 C   0  0  0  0  0  0
   24.1214   33.0156   57.0120 C   0  0  0  0  0  0
   23.9060   32.6758   58.3464 C   0  0  0  0  0  0
   22.6470   32.2458   58.7660 C   0  0  0  0  0  0
   21.5865   32.1977   57.8576 C   0  0  0  0  0  0
   20.1983   31.7432   58.2997 C   0  0  0  0  0  0
   19.9103   30.3472   57.9267 N   0  0  0  0  0  0
   19.4457   30.1367   56.6240 N   0  0  0  0  0  0
   19.1955   28.9527   56.1602 C   0  0  0  0  0  0
   19.4462   27.8387   57.0634 C   0  0  0  0  0  0
   19.9156   28.0338   58.3163 C   0  0  0  0  0  0
   20.1990   29.3563   58.8423 C   0  0  0  0  0  0
   20.6466   29.5307   59.9757 O   0  0  0  0  0  0
   18.6782   28.7120   54.7928 C   0  0  0  0  0  0
   18.8686   29.6755   53.7873 C   0  0  0  0  0  0
   18.4018   29.4581   52.4919 C   0  0  0  0  0  0
   18.5947   30.3979   51.5403 F   0  0  0  0  0  0
   17.7355   28.2754   52.1779 C   0  0  0  0  0  0
   17.5376   27.3094   53.1591 C   0  0  0  0  0  0
   16.8840   26.1648   52.8599 F   0  0  0  0  0  0
   18.0078   27.5260   54.4534 C   0  0  0  0  0  0
   21.8052   32.5682   56.5284 C   0  0  0  0  0  0
   25.6127   34.7585   51.4074 H   0  0  0  0  0  0
   26.1895   33.1263   51.4574 H   0  0  0  0  0  0
   26.6381   34.2399   52.7438 H   0  0  0  0  0  0
   21.3476   32.6089   53.6669 H   0  0  0  0  0  0
   25.1167   33.3023   56.7016 H   0  0  0  0  0  0
   24.7283   32.7185   59.0468 H   0  0  0  0  0  0
   22.4998   31.9283   59.7886 H   0  0  0  0  0  0
   20.0766   31.9170   59.3695 H   0  0  0  0  0  0
   19.4477   32.3927   57.8405 H   0  0  0  0  0  0
   19.2890   26.8170   56.7517 H   0  0  0  0  0  0
   20.1073   27.1837   58.9532 H   0  0  0  0  0  0
   19.3903   30.5998   53.9954 H   0  0  0  0  0  0
   17.3745   28.1070   51.1755 H   0  0  0  0  0  0
   17.8281   26.7513   55.1826 H   0  0  0  0  0  0
   20.9769   32.5013   55.8382 H   0  0  0  0  0  0
  1  2  1  0  0  0
  1 29  1  0  0  0
  1 30  1  0  0  0
  1 31  1  0  0  0
  2  3  2  0  0  0
  2  6  1  0  0  0
  3  4  1  0  0  0
  4  5  2  0  0  0
  4  7  1  0  0  0
  5  6  1  0  0  0
  5 32  1  0  0  0
  7  8  2  0  0  0
  7 28  1  0  0  0
  8  9  1  0  0  0
  8 33  1  0  0  0
  9 10  2  0  0  0
  9 34  1  0  0  0
 10 11  1  0  0  0
 10 35  1  0  0  0
 11 12  1  0  0  0
 11 28  2  0  0  0
 12 13  1  0  0  0
 12 36  1  0  0  0
 12 37  1  0  0  0
 13 14  1  0  0  0
 13 18  1  0  0  0
 14 15  2  0  0  0
 15 16  1  0  0  0
 15 20  1  0  0  0
 16 17  2  0  0  0
 16 38  1  0  0  0
 17 18  1  0  0  0
 17 39  1  0  0  0
 18 19  2  0  0  0
 20 21  2  0  0  0
 20 27  1  0  0  0
 21 22  1  0  0  0
 21 40  1  0  0  0
 22 23  1  0  0  0
 22 24  2  0  0  0
 24 25  1  0  0  0
 24 41  1  0  0  0
 25 26  1  0  0  0
 25 27  2  0  0  0
 27 42  1  0  0  0
 28 43  1  0  0  0
M  END
> <s_user_Name>
CHEMBL3402752_30000

> <IC50[nM]>
30000

$$$$
