CHEMBL3402745_200
                    3D
 Schrodinger Suite 2020-3.
 45 47  0  0  1  0            999 V2000
   25.0527   33.1189   50.3652 C   0  0  0  0  0  0
   25.2375   33.9564   51.6334 C   0  0  0  0  0  0
   24.2400   33.5921   52.5819 O   0  0  0  0  0  0
   24.4282   33.8098   53.8972 C   0  0  0  0  0  0
   25.4390   34.3263   54.3763 O   0  0  0  0  0  0
   23.3098   33.3499   54.5803 N   0  0  0  0  0  0
   23.1429   33.1003   55.9525 C   0  0  0  0  0  0
   24.1938   33.1211   56.8848 C   0  0  0  0  0  0
   23.9667   32.7324   58.2058 C   0  0  0  0  0  0
   22.6972   32.3172   58.6060 C   0  0  0  0  0  0
   21.6398   32.2993   57.6938 C   0  0  0  0  0  0
   20.2464   31.8624   58.1398 C   0  0  0  0  0  0
   19.9426   30.4543   57.8241 N   0  0  0  0  0  0
   19.4473   30.2067   56.5407 N   0  0  0  0  0  0
   19.1631   29.0149   56.1226 C   0  0  0  0  0  0
   19.4188   27.9275   57.0571 C   0  0  0  0  0  0
   19.9112   28.1569   58.2948 C   0  0  0  0  0  0
   20.2164   29.4915   58.7783 C   0  0  0  0  0  0
   20.6462   29.6922   59.9173 O   0  0  0  0  0  0
   18.5969   28.7490   54.7746 C   0  0  0  0  0  0
   18.6632   29.7346   53.7733 C   0  0  0  0  0  0
   18.1274   29.5090   52.5051 C   0  0  0  0  0  0
   18.1820   30.4830   51.5669 F   0  0  0  0  0  0
   17.5325   28.2870   52.2075 C   0  0  0  0  0  0
   17.4615   27.2957   53.1803 C   0  0  0  0  0  0
   16.8723   26.1122   52.8989 F   0  0  0  0  0  0
   17.9871   27.5251   54.4501 C   0  0  0  0  0  0
   21.8673   32.7053   56.3737 C   0  0  0  0  0  0
   25.8043   33.3794   49.6188 H   0  0  0  0  0  0
   24.0682   33.2847   49.9236 H   0  0  0  0  0  0
   25.1529   32.0538   50.5802 H   0  0  0  0  0  0
   26.2436   33.7973   52.0292 H   0  0  0  0  0  0
   25.1414   35.0188   51.4060 H   0  0  0  0  0  0
   22.5298   33.0978   53.9939 H   0  0  0  0  0  0
   25.1966   33.4091   56.6086 H   0  0  0  0  0  0
   24.7839   32.7419   58.9129 H   0  0  0  0  0  0
   22.5404   31.9926   59.6252 H   0  0  0  0  0  0
   20.1165   32.0758   59.2041 H   0  0  0  0  0  0
   19.5061   32.5002   57.6515 H   0  0  0  0  0  0
   19.2516   26.8958   56.7834 H   0  0  0  0  0  0
   20.1112   27.3275   58.9566 H   0  0  0  0  0  0
   19.1246   30.6921   53.9680 H   0  0  0  0  0  0
   17.1261   28.1055   51.2210 H   0  0  0  0  0  0
   17.8873   26.7273   55.1702 H   0  0  0  0  0  0
   21.0500   32.6764   55.6678 H   0  0  0  0  0  0
  1  2  1  0  0  0
  1 29  1  0  0  0
  1 30  1  0  0  0
  1 31  1  0  0  0
  2  3  1  0  0  0
  2 32  1  0  0  0
  2 33  1  0  0  0
  3  4  1  0  0  0
  4  5  2  0  0  0
  4  6  1  0  0  0
  6  7  1  0  0  0
  6 34  1  0  0  0
  7  8  2  0  0  0
  7 28  1  0  0  0
  8  9  1  0  0  0
  8 35  1  0  0  0
  9 10  2  0  0  0
  9 36  1  0  0  0
 10 11  1  0  0  0
 10 37  1  0  0  0
 11 12  1  0  0  0
 11 28  2  0  0  0
 12 13  1  0  0  0
 12 38  1  0  0  0
 12 39  1  0  0  0
 13 14  1  0  0  0
 13 18  1  0  0  0
 14 15  2  0  0  0
 15 16  1  0  0  0
 15 20  1  0  0  0
 16 17  2  0  0  0
 16 40  1  0  0  0
 17 18  1  0  0  0
 17 41  1  0  0  0
 18 19  2  0  0  0
 20 21  2  0  0  0
 20 27  1  0  0  0
 21 22  1  0  0  0
 21 42  1  0  0  0
 22 23  1  0  0  0
 22 24  2  0  0  0
 24 25  1  0  0  0
 24 43  1  0  0  0
 25 26  1  0  0  0
 25 27  2  0  0  0
 27 44  1  0  0  0
 28 45  1  0  0  0
M  END
> <s_user_Name>
CHEMBL3402745_200

> <IC50[nM]>
200

$$$$
