CHEMBL3402759_5.7
                    3D
 Schrodinger Suite 2020-3.
 65 68  0  0  1  0            999 V2000
   15.8252   31.3725   51.3891 C   0  0  0  0  0  0
   16.6336   31.3985   52.5609 O   0  0  0  0  0  0
   17.1600   30.2110   53.0332 C   0  0  0  0  0  0
   17.0411   28.9713   52.3865 C   0  0  0  0  0  0
   17.5894   27.8236   52.9554 C   0  0  0  0  0  0
   18.2507   27.8961   54.1798 C   0  0  0  0  0  0
   18.3948   29.1224   54.8472 C   0  0  0  0  0  0
   17.8475   30.2695   54.2458 C   0  0  0  0  0  0
   19.0486   29.2328   56.1755 C   0  0  0  0  0  0
   19.4293   30.3667   56.6722 N   0  0  0  0  0  0
   19.9686   30.4824   57.9555 N   0  0  0  0  0  0
   20.3331   31.8461   58.3786 C   0  0  0  0  0  0
   21.7206   32.2720   57.9089 C   0  0  0  0  0  0
   22.7963   32.2649   58.7941 C   0  0  0  0  0  0
   24.0522   32.6951   58.3785 C   0  0  0  0  0  0
   24.2472   33.0977   57.0600 C   0  0  0  0  0  0
   23.1958   33.0793   56.1281 C   0  0  0  0  0  0
   21.9239   32.6937   56.5928 C   0  0  0  0  0  0
   23.4330   33.3796   54.6769 C   0  0  0  0  0  0
   24.6802   33.7794   54.2962 N   0  0  0  0  0  0
   24.9031   33.9133   52.9625 C   0  0  0  0  0  0
   23.9128   33.6533   51.9985 C   0  0  0  0  0  0
   24.0590   33.7624   50.6310 O   0  0  0  0  0  0
   25.3682   33.8936   50.0961 C   0  0  0  0  0  0
   25.2906   34.1837   48.5896 C   0  0  0  0  0  0
   24.4426   33.2044   47.7586 C   0  0  0  0  0  0
   25.0473   31.7801   47.8070 N   0  3  0  0  0  0
   24.2954   30.8488   48.7809 C   0  0  0  0  0  0
   25.1638   31.1328   46.4103 C   0  0  0  0  0  0
   22.6661   33.2759   52.4938 C   0  0  0  0  0  0
   22.4069   33.1346   53.8163 N   0  0  0  0  0  0
   20.2003   29.4356   58.8239 C   0  0  0  0  0  0
   20.6470   29.5261   59.9699 O   0  0  0  0  0  0
   19.8279   28.1599   58.2375 C   0  0  0  0  0  0
   19.2824   28.0585   57.0032 C   0  0  0  0  0  0
   15.4607   32.3773   51.1753 H   0  0  0  0  0  0
   14.9536   30.7288   51.5196 H   0  0  0  0  0  0
   16.3925   31.0382   50.5195 H   0  0  0  0  0  0
   16.5238   28.8765   51.4445 H   0  0  0  0  0  0
   17.5001   26.8726   52.4500 H   0  0  0  0  0  0
   18.6505   26.9777   54.5828 H   0  0  0  0  0  0
   17.9226   31.2309   54.7333 H   0  0  0  0  0  0
   20.2542   31.9744   59.4611 H   0  0  0  0  0  0
   19.5997   32.5483   57.9772 H   0  0  0  0  0  0
   22.6550   31.9262   59.8103 H   0  0  0  0  0  0
   24.8822   32.7074   59.0703 H   0  0  0  0  0  0
   25.2435   33.3963   56.7680 H   0  0  0  0  0  0
   21.0817   32.6749   55.9159 H   0  0  0  0  0  0
   25.9011   34.2229   52.6925 H   0  0  0  0  0  0
   25.9545   32.9947   50.2961 H   0  0  0  0  0  0
   25.8725   34.7261   50.5758 H   0  0  0  0  0  0
   26.3021   34.2342   48.1833 H   0  0  0  0  0  0
   24.8764   35.1844   48.4581 H   0  0  0  0  0  0
   24.4351   33.5175   46.7129 H   0  0  0  0  0  0
   23.4051   33.1450   48.0939 H   0  0  0  0  0  0
   24.3216   31.2958   49.7746 H   0  0  0  0  0  0
   24.8287   29.9003   48.7760 H   0  0  0  0  0  0
   23.2708   30.7319   48.4224 H   0  0  0  0  0  0
   25.7776   31.7918   45.7935 H   0  0  0  0  0  0
   24.1577   31.0240   46.0012 H   0  0  0  0  0  0
   25.6512   30.1646   46.5354 H   0  0  0  0  0  0
   21.8477   33.0829   51.8173 H   0  0  0  0  0  0
   19.9866   27.2680   58.8255 H   0  0  0  0  0  0
   19.0200   27.0669   56.6661 H   0  0  0  0  0  0
   25.9970   31.8662   48.1636 H   0  0  0  0  0  0
  1  2  1  0  0  0
  1 36  1  0  0  0
  1 37  1  0  0  0
  1 38  1  0  0  0
  2  3  1  0  0  0
  3  4  2  0  0  0
  3  8  1  0  0  0
  4  5  1  0  0  0
  4 39  1  0  0  0
  5  6  2  0  0  0
  5 40  1  0  0  0
  6  7  1  0  0  0
  6 41  1  0  0  0
  7  8  2  0  0  0
  7  9  1  0  0  0
  8 42  1  0  0  0
  9 10  2  0  0  0
  9 35  1  0  0  0
 10 11  1  0  0  0
 11 12  1  0  0  0
 11 32  1  0  0  0
 12 13  1  0  0  0
 12 43  1  0  0  0
 12 44  1  0  0  0
 13 14  2  0  0  0
 13 18  1  0  0  0
 14 15  1  0  0  0
 14 45  1  0  0  0
 15 16  2  0  0  0
 15 46  1  0  0  0
 16 17  1  0  0  0
 16 47  1  0  0  0
 17 18  2  0  0  0
 17 19  1  0  0  0
 18 48  1  0  0  0
 19 20  2  0  0  0
 19 31  1  0  0  0
 20 21  1  0  0  0
 21 22  2  0  0  0
 21 49  1  0  0  0
 22 23  1  0  0  0
 22 30  1  0  0  0
 23 24  1  0  0  0
 24 25  1  0  0  0
 24 50  1  0  0  0
 24 51  1  0  0  0
 25 26  1  0  0  0
 25 52  1  0  0  0
 25 53  1  0  0  0
 26 27  1  0  0  0
 26 54  1  0  0  0
 26 55  1  0  0  0
 27 28  1  0  0  0
 27 29  1  0  0  0
 27 65  1  0  0  0
 28 56  1  0  0  0
 28 57  1  0  0  0
 28 58  1  0  0  0
 29 59  1  0  0  0
 29 60  1  0  0  0
 29 61  1  0  0  0
 30 31  2  0  0  0
 30 62  1  0  0  0
 32 33  2  0  0  0
 32 34  1  0  0  0
 34 35  2  0  0  0
 34 63  1  0  0  0
 35 64  1  0  0  0
M  CHG  1  27   1
M  END
> <s_user_Name>
CHEMBL3402759_5.7

> <IC50[nM]>
5.7

$$$$
