@<TRIPOS>MOLECULE
title: molecule 1
71   73    1
SMALL
USER_CHARGES


@<TRIPOS>ATOM
      1 C1         24.3930   31.0600   48.1950 C.3       1 UNK         0.0000 
      2 C2         24.5320   32.4350   47.5180 C.3       1 UNK         0.0000 
      3 N3         25.8470   33.1260   47.9680 N.4       1 UNK         0.0000 
      4 C4         26.5610   33.7970   46.7640 C.3       1 UNK         0.0000 
      5 C5         27.9650   34.3060   47.1320 C.3       1 UNK         0.0000 
      6 C6         25.7060   34.0800   49.1800 C.3       1 UNK         0.0000 
      7 C7         24.9920   33.4380   50.3750 C.3       1 UNK         0.0000 
      8 C8         25.0660   34.3430   51.6090 C.3       1 UNK         0.0000 
      9 O9         24.1180   33.9030   52.5720 O.3       1 UNK         0.0000 
     10 C10        24.3860   33.9250   53.8860 C.3       1 UNK         0.0000 
     11 O11        25.4470   34.3250   54.3750 O.3       1 UNK         0.0000 
     12 N12        23.2710   33.4380   54.5530 N.3       1 UNK         0.0000 
     13 C13        23.1060   33.1250   55.9110 C.3       1 UNK         0.0000 
     14 C14        24.1480   33.1260   56.8530 C.3       1 UNK         0.0000 
     15 C15        23.9050   32.7380   58.1700 C.3       1 UNK         0.0000 
     16 C16        22.6220   32.3500   58.5590 C.3       1 UNK         0.0000 
     17 C17        21.5760   32.3410   57.6350 C.3       1 UNK         0.0000 
     18 C18        20.1640   31.9340   58.0660 C.3       1 UNK         0.0000 
     19 N19        19.8550   30.5220   57.7690 N.3       1 UNK         0.0000 
     20 N20        19.5510   30.2570   56.4650 N.3       1 UNK         0.0000 
     21 C21        19.2600   29.1100   55.9740 C.3       1 UNK         0.0000 
     22 C22        19.1560   27.8220   56.8120 C.3       1 UNK         0.0000 
     23 S23        20.1070   27.8030   58.3760 S.3       1 UNK         0.0000 
     24 C24        20.2030   29.5870   58.7620 C.3       1 UNK         0.0000 
     25 O25        20.6460   29.8840   59.8760 O.3       1 UNK         0.0000 
     26 C26        18.9920   28.9830   54.5230 C.3       1 UNK         0.0000 
     27 C27        19.6330   29.8250   53.6060 C.3       1 UNK         0.0000 
     28 C28        19.4010   29.7030   52.2390 C.3       1 UNK         0.0000 
     29 C29        18.5160   28.7300   51.7480 C.3       1 UNK         0.0000 
     30 O30        18.2450   28.5620   50.4000 O.3       1 UNK         0.0000 
     31 C31        19.1050   29.1560   49.4370 C.3       1 UNK         0.0000 
     32 C32        17.8610   27.8800   52.6510 C.3       1 UNK         0.0000 
     33 O33        16.9970   26.9400   52.1190 O.3       1 UNK         0.0000 
     34 C34        16.4630   25.9230   52.9610 C.3       1 UNK         0.0000 
     35 C35        18.1080   28.0140   54.0300 C.3       1 UNK         0.0000 
     36 C36        21.8260   32.7280   56.3130 C.3       1 UNK         0.0000 
     37 H37        23.5730   30.4980   47.7500 H         1 UNK         0.0000 
     38 H38        24.1800   31.1330   49.2600 H         1 UNK         0.0000 
     39 H39        25.3030   30.4600   48.0820 H         1 UNK         0.0000 
     40 H40        24.5870   32.2960   46.4350 H         1 UNK         0.0000 
     41 H41        23.7060   33.1250   47.7220 H         1 UNK         0.0000 
     42 H42        26.6370   33.0230   45.9990 H         1 UNK         0.0000 
     43 H43        25.9020   34.5930   46.4110 H         1 UNK         0.0000 
     44 H44        28.5050   34.6090   46.2370 H         1 UNK         0.0000 
     45 H45        28.5530   33.5270   47.6200 H         1 UNK         0.0000 
     46 H46        27.9290   35.1720   47.7910 H         1 UNK         0.0000 
     47 H47        26.7290   34.3260   49.4690 H         1 UNK         0.0000 
     48 H48        25.2000   34.9800   48.8210 H         1 UNK         0.0000 
     49 H49        23.9440   33.2600   50.1310 H         1 UNK         0.0000 
     50 H50        25.4420   32.4740   50.6170 H         1 UNK         0.0000 
     51 H51        26.0880   34.3350   51.9940 H         1 UNK         0.0000 
     52 H52        24.8320   35.3720   51.3380 H         1 UNK         0.0000 
     53 H53        22.4690   33.2710   53.9670 H         1 UNK         0.0000 
     54 H54        25.1540   33.4070   56.5880 H         1 UNK         0.0000 
     55 H55        24.7110   32.7470   58.8870 H         1 UNK         0.0000 
     56 H56        22.4450   32.0460   59.5780 H         1 UNK         0.0000 
     57 H57        20.0050   32.1810   59.1200 H         1 UNK         0.0000 
     58 H58        19.4400   32.5650   57.5480 H         1 UNK         0.0000 
     59 H59        19.5360   26.9750   56.2390 H         1 UNK         0.0000 
     60 H60        18.1120   27.6210   57.0580 H         1 UNK         0.0000 
     61 H61        20.3230   30.5830   53.9470 H         1 UNK         0.0000 
     62 H62        19.9140   30.3790   51.5730 H         1 UNK         0.0000 
     63 H63        18.8120   28.8230   48.4420 H         1 UNK         0.0000 
     64 H64        20.1450   28.8590   49.5900 H         1 UNK         0.0000 
     65 H65        19.0320   30.2450   49.4520 H         1 UNK         0.0000 
     66 H66        15.8020   26.3400   53.7200 H         1 UNK         0.0000 
     67 H67        17.2620   25.3570   53.4430 H         1 UNK         0.0000 
     68 H68        15.8750   25.2290   52.3600 H         1 UNK         0.0000 
     69 H69        17.6030   27.3570   54.7210 H         1 UNK         0.0000 
     70 H70        21.0160   32.7070   55.5990 H         1 UNK         0.0000 
     71 H71        26.4630   32.3740   48.2750 H         1 UNK         0.0000 
@<TRIPOS>BOND
     1    1    2 1    
     2    1   37 1    
     3    1   38 1    
     4    1   39 1    
     5    2    3 1    
     6    2   40 1    
     7    2   41 1    
     8    3    4 1    
     9    3    6 1    
    10    3   71 1    
    11    4    5 1    
    12    4   42 1    
    13    4   43 1    
    14    5   44 1    
    15    5   45 1    
    16    5   46 1    
    17    6    7 1    
    18    6   47 1    
    19    6   48 1    
    20    7    8 1    
    21    7   49 1    
    22    7   50 1    
    23    8    9 1    
    24    8   51 1    
    25    8   52 1    
    26    9   10 1    
    27   10   11 1    
    28   10   12 1    
    29   12   13 1    
    30   12   53 1    
    31   13   14 1    
    32   13   36 1    
    33   14   15 1    
    34   14   54 1    
    35   15   16 1    
    36   15   55 1    
    37   16   17 1    
    38   16   56 1    
    39   17   18 1    
    40   17   36 1    
    41   18   19 1    
    42   18   57 1    
    43   18   58 1    
    44   19   20 1    
    45   19   24 1    
    46   20   21 1    
    47   21   22 1    
    48   21   26 1    
    49   22   23 1    
    50   22   59 1    
    51   22   60 1    
    52   23   24 1    
    53   24   25 1    
    54   26   27 1    
    55   26   35 1    
    56   27   28 1    
    57   27   61 1    
    58   28   29 1    
    59   28   62 1    
    60   29   30 1    
    61   29   32 1    
    62   30   31 1    
    63   31   63 1    
    64   31   64 1    
    65   31   65 1    
    66   32   33 1    
    67   32   35 1    
    68   33   34 1    
    69   34   66 1    
    70   34   67 1    
    71   34   68 1    
    72   35   69 1    
    73   36   70 1    
@<TRIPOS>SUBSTRUCTURE
     1 UNK         1 GROUP             0       ****    0 ROOT    
