@<TRIPOS>MOLECULE
CHEMBL3402742_23
57   59    1
SMALL
USER_CHARGES


@<TRIPOS>ATOM
      1 C1         24.0986   34.7063   49.0484 C.3       1 UNK         0.0000 
      2 N2         24.6432   33.2826   48.7886 N.4       1 UNK         0.0000 
      3 C3         25.8543   33.3451   47.8288 C.3       1 UNK         0.0000 
      4 C4         25.0189   32.4927   50.0695 C.3       1 UNK         0.0000 
      5 C5         23.8157   32.1161   50.9601 C.3       1 UNK         0.0000 
      6 C6         23.1879   33.2288   51.8121 C.3       1 UNK         0.0000 
      7 O7         24.2114   33.9262   52.5318 O.3       1 UNK         0.0000 
      8 C8         24.4007   33.9085   53.8846 C.2       1 UNK         0.0000 
      9 O9         25.4467   34.3262   54.3754 O.2       1 UNK         0.0000 
     10 N10        23.2923   33.4328   54.5845 N.am      1 UNK         0.0000 
     11 C11        23.1560   33.1247   55.9447 C.ar      1 UNK         0.0000 
     12 C12        24.2128   33.1260   56.8689 C.ar      1 UNK         0.0000 
     13 C13        23.9896   32.7237   58.1852 C.ar      1 UNK         0.0000 
     14 C14        22.7192   32.3122   58.5862 C.ar      1 UNK         0.0000 
     15 C15        21.6582   32.3108   57.6778 C.ar      1 UNK         0.0000 
     16 C16        20.2579   31.8951   58.1203 C.3       1 UNK         0.0000 
     17 N17        19.9237   30.4965   57.7849 N.am      1 UNK         0.0000 
     18 N18        19.4310   30.2906   56.5316 N.2       1 UNK         0.0000 
     19 C19        19.0502   29.1758   56.0241 C.2       1 UNK         0.0000 
     20 C20        19.2185   27.8061   56.7105 C.3       1 UNK         0.0000 
     21 S21        19.9746   27.7611   58.3757 S.3       1 UNK         0.0000 
     22 C22        20.2175   29.5288   58.7582 C.2       1 UNK         0.0000 
     23 O23        20.6471   29.7895   59.8854 O.2       1 UNK         0.0000 
     24 C24        18.3886   29.1760   54.6905 C.ar      1 UNK         0.0000 
     25 C25        18.2431   27.9972   53.9358 C.ar      1 UNK         0.0000 
     26 C26        17.5693   28.0071   52.7145 C.ar      1 UNK         0.0000 
     27 F27        17.4239   26.8610   52.0143 F         1 UNK         0.0000 
     28 C28        17.0348   29.1930   52.2188 C.ar      1 UNK         0.0000 
     29 C29        17.1737   30.3718   52.9443 C.ar      1 UNK         0.0000 
     30 F30        16.6469   31.5248   52.4740 F         1 UNK         0.0000 
     31 C31        17.8471   30.3641   54.1637 C.ar      1 UNK         0.0000 
     32 C32        21.8822   32.7264   56.3625 C.ar      1 UNK         0.0000 
     33 H33        23.0449   34.6088   49.3014 H         1 UNK         0.0000 
     34 H34        24.1862   35.2925   48.1323 H         1 UNK         0.0000 
     35 H35        24.6791   35.1545   49.8572 H         1 UNK         0.0000 
     36 H36        26.1448   32.3237   47.5759 H         1 UNK         0.0000 
     37 H37        26.6631   33.8707   48.3419 H         1 UNK         0.0000 
     38 H38        25.5459   33.8749   46.9260 H         1 UNK         0.0000 
     39 H39        25.4471   31.5649   49.6903 H         1 UNK         0.0000 
     40 H40        25.7990   33.0494   50.5947 H         1 UNK         0.0000 
     41 H41        23.0435   31.6278   50.3649 H         1 UNK         0.0000 
     42 H42        24.1756   31.3658   51.6605 H         1 UNK         0.0000 
     43 H43        22.6454   33.9289   51.1891 H         1 UNK         0.0000 
     44 H44        22.4243   32.7875   52.4523 H         1 UNK         0.0000 
     45 H45        22.4656   33.2745   54.0316 H         1 UNK         0.0000 
     46 H46        25.2150   33.4159   56.5938 H         1 UNK         0.0000 
     47 H47        24.8092   32.7233   58.8896 H         1 UNK         0.0000 
     48 H48        22.5614   31.9838   59.6014 H         1 UNK         0.0000 
     49 H49        20.1211   32.1147   59.1822 H         1 UNK         0.0000 
     50 H50        19.5349   32.5541   57.6362 H         1 UNK         0.0000 
     51 H51        19.8520   27.1631   56.0983 H         1 UNK         0.0000 
     52 H52        18.2473   27.3171   56.7973 H         1 UNK         0.0000 
     53 H53        18.6283   27.0467   54.2749 H         1 UNK         0.0000 
     54 H54        16.5075   29.1938   51.2769 H         1 UNK         0.0000 
     55 H55        17.9220   31.2953   54.7066 H         1 UNK         0.0000 
     56 H56        21.0593   32.7116   55.6611 H         1 UNK         0.0000 
     57 H57        23.9191   32.7591   48.3116 H         1 UNK         0.0000 
@<TRIPOS>BOND
     1    1    2 1    
     2    1   33 1    
     3    1   34 1    
     4    1   35 1    
     5    2    3 1    
     6    2    4 1    
     7    2   57 1    
     8    3   36 1    
     9    3   37 1    
    10    3   38 1    
    11    4    5 1    
    12    4   39 1    
    13    4   40 1    
    14    5    6 1    
    15    5   41 1    
    16    5   42 1    
    17    6    7 1    
    18    6   43 1    
    19    6   44 1    
    20    7    8 1    
    21    8    9 2    
    22    8   10 am   BACKBONE|DICT|INTERRES
    23   10   11 1    
    24   10   45 1    
    25   11   12 ar   
    26   11   32 ar   
    27   12   13 ar   
    28   12   46 1    
    29   13   14 ar   
    30   13   47 1    
    31   14   15 ar   
    32   14   48 1    
    33   15   16 1    
    34   15   32 ar   
    35   16   17 1    
    36   16   49 1    
    37   16   50 1    
    38   17   18 1    
    39   17   22 am   BACKBONE|DICT|INTERRES
    40   18   19 2    
    41   19   20 1    
    42   19   24 1    
    43   20   21 1    
    44   20   51 1    
    45   20   52 1    
    46   21   22 1    
    47   22   23 2    
    48   24   25 ar   
    49   24   31 ar   
    50   25   26 ar   
    51   25   53 1    
    52   26   27 1    
    53   26   28 ar   
    54   28   29 ar   
    55   28   54 1    
    56   29   30 1    
    57   29   31 ar   
    58   31   55 1    
    59   32   56 1    
@<TRIPOS>SUBSTRUCTURE
     1 UNK         1 GROUP             0       ****    0 ROOT    
