@<TRIPOS>MOLECULE
CHEMBL3402757_6.5
61   64    1
SMALL
USER_CHARGES


@<TRIPOS>ATOM
      1 C1         25.3721   31.2219   46.6644 C.3       1 UNK         0.0000 
      2 N2         24.2292   31.6762   47.5975 N.4       1 UNK         0.0000 
      3 C3         24.1603   30.8253   48.8811 C.3       1 UNK         0.0000 
      4 C4         24.1810   33.2089   47.8252 C.3       1 UNK         0.0000 
      5 C5         25.4044   33.8076   48.5650 C.3       1 UNK         0.0000 
      6 C6         25.4494   33.6181   50.0927 C.3       1 UNK         0.0000 
      7 O7         24.1499   33.8272   50.6358 O.3       1 UNK         0.0000 
      8 C8         23.9715   33.6722   51.9928 C.ar      1 UNK         0.0000 
      9 C9         24.9553   33.9009   52.9691 C.ar      1 UNK         0.0000 
     10 N10        24.7187   33.7452   54.2980 N.ar      1 UNK         0.0000 
     11 C11        23.4638   33.3512   54.6606 C.ar      1 UNK         0.0000 
     12 N12        22.4436   33.1319   53.7852 N.ar      1 UNK         0.0000 
     13 C13        22.7129   33.2993   52.4668 C.ar      1 UNK         0.0000 
     14 C14        23.2073   33.0414   56.1083 C.ar      1 UNK         0.0000 
     15 C15        24.2462   33.0690   57.0560 C.ar      1 UNK         0.0000 
     16 C16        24.0331   32.6782   58.3749 C.ar      1 UNK         0.0000 
     17 C17        22.7722   32.2476   58.7759 C.ar      1 UNK         0.0000 
     18 C18        21.7116   32.2359   57.8728 C.ar      1 UNK         0.0000 
     19 C19        20.3201   31.8105   58.3284 C.3       1 UNK         0.0000 
     20 N20        19.9672   30.4340   57.9355 N.pl3     1 UNK         0.0000 
     21 N21        19.4198   30.2849   56.6582 N.2       1 UNK         0.0000 
     22 C22        19.0471   29.1359   56.1903 C.ar      1 UNK         0.0000 
     23 C23        19.2945   27.9828   57.0432 C.ar      1 UNK         0.0000 
     24 C24        19.8472   28.1166   58.2711 C.ar      1 UNK         0.0000 
     25 C25        20.2070   29.4083   58.8283 C.ar      1 UNK         0.0000 
     26 O26        20.6472   29.5276   59.9744 O.2       1 UNK         0.0000 
     27 C27        18.3925   28.9878   54.8648 C.ar      1 UNK         0.0000 
     28 C28        18.2472   27.7417   54.2309 C.ar      1 UNK         0.0000 
     29 C29        17.5890   27.6339   53.0045 C.ar      1 UNK         0.0000 
     30 C30        17.0562   28.7685   52.3958 C.ar      1 UNK         0.0000 
     31 C31        17.1910   30.0122   53.0059 C.ar      1 UNK         0.0000 
     32 F32        16.6720   31.1185   52.4235 F         1 UNK         0.0000 
     33 C33        17.8573   30.1210   54.2252 C.ar      1 UNK         0.0000 
     34 C34        21.9312   32.6478   56.5553 C.ar      1 UNK         0.0000 
     35 H35        25.3080   31.8113   45.7470 H         1 UNK         0.0000 
     36 H36        25.2244   30.1595   46.4546 H         1 UNK         0.0000 
     37 H37        26.3194   31.3882   47.1758 H         1 UNK         0.0000 
     38 H38        23.4080   31.2663   49.5382 H         1 UNK         0.0000 
     39 H39        25.1453   30.8109   49.3438 H         1 UNK         0.0000 
     40 H40        23.8709   29.8206   48.5750 H         1 UNK         0.0000 
     41 H41        24.0971   33.6212   46.8176 H         1 UNK         0.0000 
     42 H42        23.2361   33.4125   48.3360 H         1 UNK         0.0000 
     43 H43        26.3385   33.4600   48.1276 H         1 UNK         0.0000 
     44 H44        25.3938   34.8815   48.3778 H         1 UNK         0.0000 
     45 H45        25.8116   32.6248   50.3571 H         1 UNK         0.0000 
     46 H46        26.1665   34.3265   50.5072 H         1 UNK         0.0000 
     47 H47        25.9519   34.2201   52.7070 H         1 UNK         0.0000 
     48 H48        21.8874   33.1258   51.7883 H         1 UNK         0.0000 
     49 H49        25.2443   33.3742   56.7757 H         1 UNK         0.0000 
     50 H50        24.8506   32.7011   59.0815 H         1 UNK         0.0000 
     51 H51        22.6205   31.9255   59.7949 H         1 UNK         0.0000 
     52 H52        20.2231   31.9635   59.4069 H         1 UNK         0.0000 
     53 H53        19.5887   32.4978   57.8996 H         1 UNK         0.0000 
     54 H54        19.0401   26.9809   56.7320 H         1 UNK         0.0000 
     55 H55        20.0179   27.2405   58.8787 H         1 UNK         0.0000 
     56 H56        18.6474   26.8346   54.6590 H         1 UNK         0.0000 
     57 H57        17.4965   26.6686   52.5287 H         1 UNK         0.0000 
     58 H58        16.5387   28.6851   51.4518 H         1 UNK         0.0000 
     59 H59        17.9339   31.1003   54.6757 H         1 UNK         0.0000 
     60 H60        21.0980   32.6179   55.8680 H         1 UNK         0.0000 
     61 H61        23.3734   31.4683   47.0969 H         1 UNK         0.0000 
@<TRIPOS>BOND
     1    1    2 1    
     2    1   35 1    
     3    1   36 1    
     4    1   37 1    
     5    2    3 1    
     6    2    4 1    
     7    2   61 1    
     8    3   38 1    
     9    3   39 1    
    10    3   40 1    
    11    4    5 1    
    12    4   41 1    
    13    4   42 1    
    14    5    6 1    
    15    5   43 1    
    16    5   44 1    
    17    6    7 1    
    18    6   45 1    
    19    6   46 1    
    20    7    8 1    
    21    8    9 ar   
    22    8   13 ar   
    23    9   10 ar   
    24    9   47 1    
    25   10   11 ar   
    26   11   12 ar   
    27   11   14 1    
    28   12   13 ar   
    29   13   48 1    
    30   14   15 ar   
    31   14   34 ar   
    32   15   16 ar   
    33   15   49 1    
    34   16   17 ar   
    35   16   50 1    
    36   17   18 ar   
    37   17   51 1    
    38   18   19 1    
    39   18   34 ar   
    40   19   20 1    
    41   19   52 1    
    42   19   53 1    
    43   20   21 ar   
    44   20   25 ar   
    45   21   22 ar   
    46   22   23 ar   
    47   22   27 1    
    48   23   24 ar   
    49   23   54 1    
    50   24   25 ar   
    51   24   55 1    
    52   25   26 2    
    53   27   28 ar   
    54   27   33 ar   
    55   28   29 ar   
    56   28   56 1    
    57   29   30 ar   
    58   29   57 1    
    59   30   31 ar   
    60   30   58 1    
    61   31   32 1    
    62   31   33 ar   
    63   33   59 1    
    64   34   60 1    
@<TRIPOS>SUBSTRUCTURE
     1 UNK         1 GROUP             0       ****    0 ROOT    
