@<TRIPOS>MOLECULE
CHEMBL3402748_5300
44   47    1
SMALL
USER_CHARGES


@<TRIPOS>ATOM
      1 C1         24.3564   33.6113   52.8448 C.ar      1 UNK         0.0000 
      2 C2         23.0183   33.4975   52.5099 C.ar      1 UNK         0.0000 
      3 N3         22.3767   33.2602   53.6894 N.pl3     1 UNK         0.0000 
      4 C4         23.3432   33.2295   54.6627 C.ar      1 UNK         0.0000 
      5 N5         24.5366   33.4320   54.1451 N.2       1 UNK         0.0000 
      6 C6         23.0804   32.9514   56.1082 C.ar      1 UNK         0.0000 
      7 C7         24.1299   32.9871   57.0396 C.ar      1 UNK         0.0000 
      8 C8         23.9111   32.6334   58.3678 C.ar      1 UNK         0.0000 
      9 C9         22.6434   32.2299   58.7760 C.ar      1 UNK         0.0000 
     10 C10        21.5787   32.2132   57.8761 C.ar      1 UNK         0.0000 
     11 C11        20.1881   31.7866   58.3387 C.3       1 UNK         0.0000 
     12 N12        19.8602   30.4029   57.9603 N.pl3     1 UNK         0.0000 
     13 N13        19.3499   30.2301   56.6724 N.2       1 UNK         0.0000 
     14 C14        19.0474   29.0660   56.1901 C.ar      1 UNK         0.0000 
     15 C15        19.3238   27.9262   57.0522 C.ar      1 UNK         0.0000 
     16 C16        19.8480   28.0844   58.2899 C.ar      1 UNK         0.0000 
     17 C17        20.1660   29.3879   58.8437 C.ar      1 UNK         0.0000 
     18 O18        20.6457   29.5266   59.9726 O.2       1 UNK         0.0000 
     19 C19        18.4259   28.8961   54.8518 C.ar      1 UNK         0.0000 
     20 C20        18.2460   27.6349   54.2566 C.ar      1 UNK         0.0000 
     21 C21        17.5752   27.5079   53.0404 C.ar      1 UNK         0.0000 
     22 F22        17.3791   26.2837   52.5028 F         1 UNK         0.0000 
     23 C23        17.0894   28.6363   52.3852 C.ar      1 UNK         0.0000 
     24 C24        17.2733   29.8953   52.9468 C.ar      1 UNK         0.0000 
     25 F25        16.7952   30.9967   52.3254 F         1 UNK         0.0000 
     26 C26        17.9353   30.0226   54.1664 C.ar      1 UNK         0.0000 
     27 C27        21.8002   32.5881   56.5482 C.ar      1 UNK         0.0000 
     28 C28        22.2516   33.6272   51.1806 C.3       1 UNK         0.0000 
     29 H29        21.3852   33.1297   53.8181 H         1 UNK         0.0000 
     30 H30        25.1266   33.2707   56.7329 H         1 UNK         0.0000 
     31 H31        24.7309   32.6529   59.0725 H         1 UNK         0.0000 
     32 H32        22.4875   31.9256   59.8004 H         1 UNK         0.0000 
     33 H33        20.0883   31.9468   59.4152 H         1 UNK         0.0000 
     34 H34        19.4496   32.4622   57.9040 H         1 UNK         0.0000 
     35 H35        19.1182   26.9124   56.7412 H         1 UNK         0.0000 
     36 H36        20.0418   27.2166   58.9026 H         1 UNK         0.0000 
     37 H37        18.6020   26.7265   54.7163 H         1 UNK         0.0000 
     38 H38        16.5637   28.5315   51.4477 H         1 UNK         0.0000 
     39 H39        18.0368   31.0133   54.5841 H         1 UNK         0.0000 
     40 H40        20.9726   32.5554   55.8558 H         1 UNK         0.0000 
     41 H41        25.0887   33.8206   52.0791 H         1 UNK         0.0000 
     42 H42        21.1887   33.4612   51.3559 H         1 UNK         0.0000 
     43 H43        22.4001   34.6264   50.7710 H         1 UNK         0.0000 
     44 H44        22.6227   32.8861   50.4728 H         1 UNK         0.0000 
@<TRIPOS>BOND
     1    1    2 ar   
     2    1    5 ar   
     3    1   41 1    
     4    2   28 1    
     5    2    3 ar   
     6    3   29 1    
     7    3    4 ar   
     8    4    6 1    
     9    4    5 ar   
    10    6    7 ar   
    11    6   27 ar   
    12    7    8 ar   
    13    7   30 1    
    14    8    9 ar   
    15    8   31 1    
    16    9   10 ar   
    17    9   32 1    
    18   10   11 1    
    19   10   27 ar   
    20   11   12 1    
    21   11   33 1    
    22   11   34 1    
    23   12   13 ar   
    24   12   17 ar   
    25   13   14 ar   
    26   14   15 ar   
    27   14   19 1    
    28   15   16 ar   
    29   15   35 1    
    30   16   17 ar   
    31   16   36 1    
    32   17   18 2    
    33   19   20 ar   
    34   19   26 ar   
    35   20   21 ar   
    36   20   37 1    
    37   21   22 1    
    38   21   23 ar   
    39   23   24 ar   
    40   23   38 1    
    41   24   25 1    
    42   24   26 ar   
    43   26   39 1    
    44   27   40 1    
    45   28   42 1    
    46   28   43 1    
    47   28   44 1    
@<TRIPOS>SUBSTRUCTURE
     1 UNK         1 GROUP             0       ****    0 ROOT    
