CHEMBL3402751_2100
                    3D
 Schrodinger Suite 2020-3.
 43 46  0  0  1  0            999 V2000
   25.4546   34.0626   51.8681 C   0  0  0  0  0  0
   24.2458   33.5655   52.6084 C   0  0  0  0  0  0
   23.0466   33.1217   52.0694 C   0  0  0  0  0  0
   21.9546   32.7270   53.3515 S   0  0  0  0  0  0
   23.1994   33.1657   54.4892 C   0  0  0  0  0  0
   24.3147   33.5726   53.9283 N   0  0  0  0  0  0
   23.0109   32.9868   55.9672 C   0  0  0  0  0  0
   24.0904   33.1252   56.8524 C   0  0  0  0  0  0
   23.9482   32.8025   58.2023 C   0  0  0  0  0  0
   22.7220   32.3503   58.6876 C   0  0  0  0  0  0
   21.6224   32.2538   57.8330 C   0  0  0  0  0  0
   20.2645   31.7859   58.3460 C   0  0  0  0  0  0
   19.9383   30.4029   57.9522 N   0  0  0  0  0  0
   19.4243   30.2333   56.6662 N   0  0  0  0  0  0
   19.0833   29.0741   56.1949 C   0  0  0  0  0  0
   19.3233   27.9339   57.0667 C   0  0  0  0  0  0
   19.8505   28.0858   58.3019 C   0  0  0  0  0  0
   20.1983   29.3876   58.8430 C   0  0  0  0  0  0
   20.6466   29.5267   59.9800 O   0  0  0  0  0  0
   18.4707   28.9052   54.8520 C   0  0  0  0  0  0
   18.2408   27.6408   54.2812 C   0  0  0  0  0  0
   17.5943   27.5179   53.0509 C   0  0  0  0  0  0
   17.3595   26.2922   52.5332 F   0  0  0  0  0  0
   17.1807   28.6542   52.3604 C   0  0  0  0  0  0
   17.4067   29.9163   52.9017 C   0  0  0  0  0  0
   16.9990   31.0230   52.2407 F   0  0  0  0  0  0
   18.0491   30.0411   54.1333 C   0  0  0  0  0  0
   21.7707   32.5908   56.4850 C   0  0  0  0  0  0
   25.6022   35.1228   52.0676 H   0  0  0  0  0  0
   25.3498   33.9567   50.7902 H   0  0  0  0  0  0
   26.3609   33.5264   52.1496 H   0  0  0  0  0  0
   22.7549   33.0415   51.0331 H   0  0  0  0  0  0
   25.0615   33.4345   56.4916 H   0  0  0  0  0  0
   24.8015   32.8789   58.8636 H   0  0  0  0  0  0
   22.6301   32.0620   59.7238 H   0  0  0  0  0  0
   20.2058   31.9337   59.4280 H   0  0  0  0  0  0
   19.4974   32.4531   57.9494 H   0  0  0  0  0  0
   19.0880   26.9238   56.7639 H   0  0  0  0  0  0
   20.0252   27.2181   58.9207 H   0  0  0  0  0  0
   18.5424   26.7267   54.7670 H   0  0  0  0  0  0
   16.6799   28.5527   51.4100 H   0  0  0  0  0  0
   18.1922   31.0351   54.5284 H   0  0  0  0  0  0
   20.9150   32.4861   55.8355 H   0  0  0  0  0  0
  1  2  1  0  0  0
  1 29  1  0  0  0
  1 30  1  0  0  0
  1 31  1  0  0  0
  2  3  2  0  0  0
  2  6  1  0  0  0
  3  4  1  0  0  0
  3 32  1  0  0  0
  4  5  1  0  0  0
  5  6  2  0  0  0
  5  7  1  0  0  0
  7  8  2  0  0  0
  7 28  1  0  0  0
  8  9  1  0  0  0
  8 33  1  0  0  0
  9 10  2  0  0  0
  9 34  1  0  0  0
 10 11  1  0  0  0
 10 35  1  0  0  0
 11 12  1  0  0  0
 11 28  2  0  0  0
 12 13  1  0  0  0
 12 36  1  0  0  0
 12 37  1  0  0  0
 13 14  1  0  0  0
 13 18  1  0  0  0
 14 15  2  0  0  0
 15 16  1  0  0  0
 15 20  1  0  0  0
 16 17  2  0  0  0
 16 38  1  0  0  0
 17 18  1  0  0  0
 17 39  1  0  0  0
 18 19  2  0  0  0
 20 21  2  0  0  0
 20 27  1  0  0  0
 21 22  1  0  0  0
 21 40  1  0  0  0
 22 23  1  0  0  0
 22 24  2  0  0  0
 24 25  1  0  0  0
 24 41  1  0  0  0
 25 26  1  0  0  0
 25 27  2  0  0  0
 27 42  1  0  0  0
 28 43  1  0  0  0
M  END
> <s_user_Name>
CHEMBL3402751_2100

> <IC50[nM]>
2100

$$$$
