CHEMBL3402750_400
                    3D
 Schrodinger Suite 2020-3.
 43 46  0  0  1  0            999 V2000
   23.7416   33.4339   50.5656 C   0  0  0  0  0  0
   23.9419   33.5262   52.0577 C   0  0  0  0  0  0
   25.0472   33.9262   52.8109 C   0  0  0  0  0  0
   24.9413   33.8882   54.1251 N   0  0  0  0  0  0
   23.7703   33.4371   54.5091 C   0  0  0  0  0  0
   22.6918   33.0941   53.1909 S   0  0  0  0  0  0
   23.3991   33.1258   55.9322 C   0  0  0  0  0  0
   24.3940   33.1223   56.9191 C   0  0  0  0  0  0
   24.1066   32.7375   58.2267 C   0  0  0  0  0  0
   22.8110   32.3634   58.5715 C   0  0  0  0  0  0
   21.7948   32.3802   57.6162 C   0  0  0  0  0  0
   20.3655   32.0248   58.0262 C   0  0  0  0  0  0
   20.0019   30.6204   57.7683 N   0  0  0  0  0  0
   19.4474   30.3566   56.5137 N   0  0  0  0  0  0
   19.0638   29.1726   56.1515 C   0  0  0  0  0  0
   19.2956   28.1043   57.1128 C   0  0  0  0  0  0
   19.8470   28.3480   58.3259 C   0  0  0  0  0  0
   20.2312   29.6832   58.7547 C   0  0  0  0  0  0
   20.6849   29.9063   59.8819 O   0  0  0  0  0  0
   18.4133   28.9105   54.8422 C   0  0  0  0  0  0
   17.9351   29.9898   54.0754 C   0  0  0  0  0  0
   17.2559   29.7777   52.8782 C   0  0  0  0  0  0
   16.7949   30.8353   52.1707 F   0  0  0  0  0  0
   17.0400   28.4827   52.4202 C   0  0  0  0  0  0
   17.5120   27.4001   53.1582 C   0  0  0  0  0  0
   17.2881   26.1399   52.7214 F   0  0  0  0  0  0
   18.2026   27.6096   54.3522 C   0  0  0  0  0  0
   22.0909   32.7664   56.3023 C   0  0  0  0  0  0
   23.6844   32.3960   50.2370 H   0  0  0  0  0  0
   24.5565   33.9022   50.0124 H   0  0  0  0  0  0
   22.8173   33.9215   50.2539 H   0  0  0  0  0  0
   25.9799   34.2599   52.3772 H   0  0  0  0  0  0
   25.4112   33.3943   56.6782 H   0  0  0  0  0  0
   24.8920   32.7270   58.9682 H   0  0  0  0  0  0
   22.5972   32.0572   59.5827 H   0  0  0  0  0  0
   20.2132   32.2909   59.0739 H   0  0  0  0  0  0
   19.6776   32.6821   57.4901 H   0  0  0  0  0  0
   19.0342   27.0804   56.8932 H   0  0  0  0  0  0
   20.0092   27.5307   59.0138 H   0  0  0  0  0  0
   18.0667   31.0101   54.4070 H   0  0  0  0  0  0
   16.4995   28.3179   51.4996 H   0  0  0  0  0  0
   18.5540   26.7358   54.8749 H   0  0  0  0  0  0
   21.2972   32.7657   55.5704 H   0  0  0  0  0  0
  1  2  1  0  0  0
  1 29  1  0  0  0
  1 30  1  0  0  0
  1 31  1  0  0  0
  2  3  2  0  0  0
  2  6  1  0  0  0
  3  4  1  0  0  0
  3 32  1  0  0  0
  4  5  2  0  0  0
  5  6  1  0  0  0
  5  7  1  0  0  0
  7  8  2  0  0  0
  7 28  1  0  0  0
  8  9  1  0  0  0
  8 33  1  0  0  0
  9 10  2  0  0  0
  9 34  1  0  0  0
 10 11  1  0  0  0
 10 35  1  0  0  0
 11 12  1  0  0  0
 11 28  2  0  0  0
 12 13  1  0  0  0
 12 36  1  0  0  0
 12 37  1  0  0  0
 13 14  1  0  0  0
 13 18  1  0  0  0
 14 15  2  0  0  0
 15 16  1  0  0  0
 15 20  1  0  0  0
 16 17  2  0  0  0
 16 38  1  0  0  0
 17 18  1  0  0  0
 17 39  1  0  0  0
 18 19  2  0  0  0
 20 21  2  0  0  0
 20 27  1  0  0  0
 21 22  1  0  0  0
 21 40  1  0  0  0
 22 23  1  0  0  0
 22 24  2  0  0  0
 24 25  1  0  0  0
 24 41  1  0  0  0
 25 26  1  0  0  0
 25 27  2  0  0  0
 27 42  1  0  0  0
 28 43  1  0  0  0
M  END
> <s_user_Name>
CHEMBL3402750_400

> <IC50[nM]>
400

$$$$
