CHEMBL3402763_90
                    3D
 Schrodinger Suite 2020-3.
 63 65  0  0  1  0            999 V2000
   24.4727   31.0016   48.0036 C   0  0  0  0  0  0
   24.5300   32.4421   47.4625 C   0  0  0  0  0  0
   25.8471   33.1263   47.9174 N   0  3  0  0  0  0
   26.5582   33.8236   46.7267 C   0  0  0  0  0  0
   27.9680   34.3135   47.0983 C   0  0  0  0  0  0
   25.7037   34.0574   49.1505 C   0  0  0  0  0  0
   25.0196   33.3694   50.3406 C   0  0  0  0  0  0
   25.1207   34.2204   51.6096 C   0  0  0  0  0  0
   24.2089   33.7070   52.5694 O   0  0  0  0  0  0
   24.4274   33.8425   53.8818 C   0  0  0  0  0  0
   25.4468   34.3262   54.3758 O   0  0  0  0  0  0
   23.3143   33.3489   54.5431 N   0  0  0  0  0  0
   23.1199   33.0979   55.9090 C   0  0  0  0  0  0
   24.1414   33.1258   56.8692 C   0  0  0  0  0  0
   23.8696   32.7659   58.1897 C   0  0  0  0  0  0
   22.5879   32.3615   58.5569 C   0  0  0  0  0  0
   21.5635   32.3202   57.6077 C   0  0  0  0  0  0
   20.1562   31.8850   58.0078 C   0  0  0  0  0  0
   19.8644   30.4717   57.6936 N   0  0  0  0  0  0
   19.3890   30.2278   56.4402 N   0  0  0  0  0  0
   19.0442   29.0918   55.9519 C   0  0  0  0  0  0
   19.2131   27.7463   56.6825 C   0  0  0  0  0  0
   19.8987   27.7561   58.3757 S   0  0  0  0  0  0
   20.1827   29.5317   58.6864 C   0  0  0  0  0  0
   20.6467   29.8222   59.7923 O   0  0  0  0  0  0
   18.4155   29.0391   54.5996 C   0  0  0  0  0  0
   17.9456   30.2139   53.9817 C   0  0  0  0  0  0
   17.3441   30.1691   52.7261 C   0  0  0  0  0  0
   17.2051   28.9511   52.0696 C   0  0  0  0  0  0
   16.4736   28.8975   50.5073 Cl  0  0  0  0  0  0
   17.6526   27.7758   52.6640 C   0  0  0  0  0  0
   18.2471   27.8189   53.9222 C   0  0  0  0  0  0
   21.8327   32.7061   56.2913 C   0  0  0  0  0  0
   23.5968   30.4811   47.6104 H   0  0  0  0  0  0
   24.4033   30.9609   49.0891 H   0  0  0  0  0  0
   25.3532   30.4260   47.7088 H   0  0  0  0  0  0
   24.5177   32.4252   46.3705 H   0  0  0  0  0  0
   23.6976   33.0693   47.7875 H   0  0  0  0  0  0
   26.6196   33.0663   45.9418 H   0  0  0  0  0  0
   25.9002   34.6318   46.3996 H   0  0  0  0  0  0
   28.5062   34.6317   46.2047 H   0  0  0  0  0  0
   28.5571   33.5279   47.5728 H   0  0  0  0  0  0
   27.9415   35.1731   47.7690 H   0  0  0  0  0  0
   26.7217   34.3261   49.4276 H   0  0  0  0  0  0
   25.1693   34.9484   48.8141 H   0  0  0  0  0  0
   23.9675   33.2044   50.1122 H   0  0  0  0  0  0
   25.4667   32.3939   50.5322 H   0  0  0  0  0  0
   26.1498   34.2162   51.9755 H   0  0  0  0  0  0
   24.8575   35.2572   51.3965 H   0  0  0  0  0  0
   22.5395   33.1075   53.9443 H   0  0  0  0  0  0
   25.1537   33.4086   56.6205 H   0  0  0  0  0  0
   24.6629   32.7886   58.9236 H   0  0  0  0  0  0
   22.3957   32.0656   59.5762 H   0  0  0  0  0  0
   19.9788   32.1176   59.0609 H   0  0  0  0  0  0
   19.4347   32.5167   57.4888 H   0  0  0  0  0  0
   18.2473   27.2434   56.7524 H   0  0  0  0  0  0
   19.8772   27.1004   56.1068 H   0  0  0  0  0  0
   18.0354   31.1729   54.4712 H   0  0  0  0  0  0
   16.9904   31.0770   52.2615 H   0  0  0  0  0  0
   17.5495   26.8304   52.1502 H   0  0  0  0  0  0
   18.5791   26.8796   54.3375 H   0  0  0  0  0  0
   21.0378   32.6610   55.5594 H   0  0  0  0  0  0
   26.4658   32.3740   48.2108 H   0  0  0  0  0  0
  1  2  1  0  0  0
  1 34  1  0  0  0
  1 35  1  0  0  0
  1 36  1  0  0  0
  2  3  1  0  0  0
  2 37  1  0  0  0
  2 38  1  0  0  0
  3  4  1  0  0  0
  3  6  1  0  0  0
  3 63  1  0  0  0
  4  5  1  0  0  0
  4 39  1  0  0  0
  4 40  1  0  0  0
  5 41  1  0  0  0
  5 42  1  0  0  0
  5 43  1  0  0  0
  6  7  1  0  0  0
  6 44  1  0  0  0
  6 45  1  0  0  0
  7  8  1  0  0  0
  7 46  1  0  0  0
  7 47  1  0  0  0
  8  9  1  0  0  0
  8 48  1  0  0  0
  8 49  1  0  0  0
  9 10  1  0  0  0
 10 11  2  0  0  0
 10 12  1  0  0  0
 12 13  1  0  0  0
 12 50  1  0  0  0
 13 14  2  0  0  0
 13 33  1  0  0  0
 14 15  1  0  0  0
 14 51  1  0  0  0
 15 16  2  0  0  0
 15 52  1  0  0  0
 16 17  1  0  0  0
 16 53  1  0  0  0
 17 18  1  0  0  0
 17 33  2  0  0  0
 18 19  1  0  0  0
 18 54  1  0  0  0
 18 55  1  0  0  0
 19 20  1  0  0  0
 19 24  1  0  0  0
 20 21  2  0  0  0
 21 22  1  0  0  0
 21 26  1  0  0  0
 22 23  1  0  0  0
 22 56  1  0  0  0
 22 57  1  0  0  0
 23 24  1  0  0  0
 24 25  2  0  0  0
 26 27  2  0  0  0
 26 32  1  0  0  0
 27 28  1  0  0  0
 27 58  1  0  0  0
 28 29  2  0  0  0
 28 59  1  0  0  0
 29 30  1  0  0  0
 29 31  1  0  0  0
 31 32  2  0  0  0
 31 60  1  0  0  0
 32 61  1  0  0  0
 33 62  1  0  0  0
M  CHG  1   3   1
M  END
> <s_user_Name>
CHEMBL3402763_90

> <IC50[nM]>
90

$$$$
