@<TRIPOS>MOLECULE
CHEMBL3402751_2100
43   46    1
SMALL
USER_CHARGES


@<TRIPOS>ATOM
      1 C1         25.4546   34.0626   51.8681 C.3       1 UNK         0.0000 
      2 C2         24.2458   33.5655   52.6084 C.2       1 UNK         0.0000 
      3 C3         23.0466   33.1217   52.0694 C.2       1 UNK         0.0000 
      4 S4         21.9546   32.7270   53.3515 S.3       1 UNK         0.0000 
      5 C5         23.1994   33.1657   54.4892 C.2       1 UNK         0.0000 
      6 N6         24.3147   33.5726   53.9283 N.2       1 UNK         0.0000 
      7 C7         23.0109   32.9868   55.9672 C.ar      1 UNK         0.0000 
      8 C8         24.0904   33.1252   56.8524 C.ar      1 UNK         0.0000 
      9 C9         23.9482   32.8025   58.2023 C.ar      1 UNK         0.0000 
     10 C10        22.7220   32.3503   58.6876 C.ar      1 UNK         0.0000 
     11 C11        21.6224   32.2538   57.8330 C.ar      1 UNK         0.0000 
     12 C12        20.2645   31.7859   58.3460 C.3       1 UNK         0.0000 
     13 N13        19.9383   30.4029   57.9522 N.pl3     1 UNK         0.0000 
     14 N14        19.4243   30.2333   56.6662 N.2       1 UNK         0.0000 
     15 C15        19.0833   29.0741   56.1949 C.ar      1 UNK         0.0000 
     16 C16        19.3233   27.9339   57.0667 C.ar      1 UNK         0.0000 
     17 C17        19.8505   28.0858   58.3019 C.ar      1 UNK         0.0000 
     18 C18        20.1983   29.3876   58.8430 C.ar      1 UNK         0.0000 
     19 O19        20.6466   29.5267   59.9800 O.2       1 UNK         0.0000 
     20 C20        18.4707   28.9052   54.8520 C.ar      1 UNK         0.0000 
     21 C21        18.2408   27.6408   54.2812 C.ar      1 UNK         0.0000 
     22 C22        17.5943   27.5179   53.0509 C.ar      1 UNK         0.0000 
     23 F23        17.3595   26.2922   52.5332 F         1 UNK         0.0000 
     24 C24        17.1807   28.6542   52.3604 C.ar      1 UNK         0.0000 
     25 C25        17.4067   29.9163   52.9017 C.ar      1 UNK         0.0000 
     26 F26        16.9990   31.0230   52.2407 F         1 UNK         0.0000 
     27 C27        18.0491   30.0411   54.1333 C.ar      1 UNK         0.0000 
     28 C28        21.7707   32.5908   56.4850 C.ar      1 UNK         0.0000 
     29 H29        25.6022   35.1228   52.0676 H         1 UNK         0.0000 
     30 H30        25.3498   33.9567   50.7902 H         1 UNK         0.0000 
     31 H31        26.3609   33.5264   52.1496 H         1 UNK         0.0000 
     32 H32        22.7549   33.0415   51.0331 H         1 UNK         0.0000 
     33 H33        25.0615   33.4345   56.4916 H         1 UNK         0.0000 
     34 H34        24.8015   32.8789   58.8636 H         1 UNK         0.0000 
     35 H35        22.6301   32.0620   59.7238 H         1 UNK         0.0000 
     36 H36        20.2058   31.9337   59.4280 H         1 UNK         0.0000 
     37 H37        19.4974   32.4531   57.9494 H         1 UNK         0.0000 
     38 H38        19.0880   26.9238   56.7639 H         1 UNK         0.0000 
     39 H39        20.0252   27.2181   58.9207 H         1 UNK         0.0000 
     40 H40        18.5424   26.7267   54.7670 H         1 UNK         0.0000 
     41 H41        16.6799   28.5527   51.4100 H         1 UNK         0.0000 
     42 H42        18.1922   31.0351   54.5284 H         1 UNK         0.0000 
     43 H43        20.9150   32.4861   55.8355 H         1 UNK         0.0000 
@<TRIPOS>BOND
     1    1    2 1    
     2    1   29 1    
     3    1   30 1    
     4    1   31 1    
     5    2    3 2    
     6    2    6 1    
     7    3    4 1    
     8    3   32 1    
     9    4    5 1    
    10    5    6 2    
    11    5    7 1    
    12    7    8 ar   
    13    7   28 ar   
    14    8    9 ar   
    15    8   33 1    
    16    9   10 ar   
    17    9   34 1    
    18   10   11 ar   
    19   10   35 1    
    20   11   12 1    
    21   11   28 ar   
    22   12   13 1    
    23   12   36 1    
    24   12   37 1    
    25   13   14 ar   
    26   13   18 ar   
    27   14   15 ar   
    28   15   16 ar   
    29   15   20 1    
    30   16   17 ar   
    31   16   38 1    
    32   17   18 ar   
    33   17   39 1    
    34   18   19 2    
    35   20   21 ar   
    36   20   27 ar   
    37   21   22 ar   
    38   21   40 1    
    39   22   23 1    
    40   22   24 ar   
    41   24   25 ar   
    42   24   41 1    
    43   25   26 1    
    44   25   27 ar   
    45   27   42 1    
    46   28   43 1    
@<TRIPOS>SUBSTRUCTURE
     1 UNK         1 GROUP             0       ****    0 ROOT    
