@<TRIPOS>MOLECULE
CHEMBL3402758_10
60   63    1
SMALL
USER_CHARGES


@<TRIPOS>ATOM
      1 C1         22.9152   29.8931   48.1561 C.3       1 UNK         0.0000 
      2 N2         24.2551   30.6483   48.3008 N.4       1 UNK         0.0000 
      3 C3         25.1218   30.4724   47.0330 C.3       1 UNK         0.0000 
      4 C4         24.0434   32.1319   48.6858 C.3       1 UNK         0.0000 
      5 C5         25.3059   32.6758   49.3763 C.3       1 UNK         0.0000 
      6 C6         25.1552   34.0797   49.9601 C.3       1 UNK         0.0000 
      7 O7         23.9394   34.1774   50.6857 O.3       1 UNK         0.0000 
      8 C8         23.8832   33.7800   52.0009 C.ar      1 UNK         0.0000 
      9 C9         24.9026   33.9265   52.9536 C.ar      1 UNK         0.0000 
     10 N10        24.7110   33.6572   54.2732 N.ar      1 UNK         0.0000 
     11 C11        23.4739   33.2169   54.6422 C.ar      1 UNK         0.0000 
     12 N12        22.4457   33.0003   53.7775 N.ar      1 UNK         0.0000 
     13 C13        22.6711   33.2812   52.4732 C.ar      1 UNK         0.0000 
     14 C14        23.2175   32.9270   56.0926 C.ar      1 UNK         0.0000 
     15 C15        24.2484   32.9698   57.0452 C.ar      1 UNK         0.0000 
     16 C16        24.0210   32.6233   58.3754 C.ar      1 UNK         0.0000 
     17 C17        22.7528   32.2188   58.7787 C.ar      1 UNK         0.0000 
     18 C18        21.6995   32.1904   57.8666 C.ar      1 UNK         0.0000 
     19 C19        20.3003   31.7816   58.3130 C.3       1 UNK         0.0000 
     20 N20        19.9556   30.3998   57.9322 N.pl3     1 UNK         0.0000 
     21 N21        19.4383   30.2304   56.6462 N.2       1 UNK         0.0000 
     22 C22        19.0792   29.0738   56.1867 C.ar      1 UNK         0.0000 
     23 C23        19.3118   27.9338   57.0630 C.ar      1 UNK         0.0000 
     24 C24        19.8456   28.0864   58.2961 C.ar      1 UNK         0.0000 
     25 C25        20.1994   29.3881   58.8358 C.ar      1 UNK         0.0000 
     26 O26        20.6461   29.5264   59.9758 O.2       1 UNK         0.0000 
     27 C27        18.4684   28.9016   54.8476 C.ar      1 UNK         0.0000 
     28 C28        18.2473   27.6429   54.2625 C.ar      1 UNK         0.0000 
     29 C29        17.6426   27.5449   53.0095 C.ar      1 UNK         0.0000 
     30 C30        17.2575   28.7188   52.3615 C.ar      1 UNK         0.0000 
     31 N31        17.4530   29.9497   52.8941 N.ar      1 UNK         0.0000 
     32 C32        18.0494   30.0246   54.1102 C.ar      1 UNK         0.0000 
     33 C33        21.9345   32.5596   56.5416 C.ar      1 UNK         0.0000 
     34 H34        22.3844   29.9730   49.1064 H         1 UNK         0.0000 
     35 H35        23.1448   28.8479   47.9357 H         1 UNK         0.0000 
     36 H36        22.3491   30.3567   47.3451 H         1 UNK         0.0000 
     37 H37        26.0669   30.9958   47.1787 H         1 UNK         0.0000 
     38 H38        24.5712   30.8895   46.1875 H         1 UNK         0.0000 
     39 H39        25.2982   29.4030   46.9013 H         1 UNK         0.0000 
     40 H40        23.7656   32.6740   47.7807 H         1 UNK         0.0000 
     41 H41        23.1997   32.1424   49.3791 H         1 UNK         0.0000 
     42 H42        25.6010   31.9984   50.1797 H         1 UNK         0.0000 
     43 H43        26.1285   32.7270   48.6630 H         1 UNK         0.0000 
     44 H44        26.0407   34.3279   50.5421 H         1 UNK         0.0000 
     45 H45        25.1051   34.8078   49.1483 H         1 UNK         0.0000 
     46 H46        25.8688   34.3330   52.6953 H         1 UNK         0.0000 
     47 H47        21.8477   33.1258   51.7966 H         1 UNK         0.0000 
     48 H48        25.2516   33.2562   56.7614 H         1 UNK         0.0000 
     49 H49        24.8370   32.6599   59.0843 H         1 UNK         0.0000 
     50 H50        22.5869   31.9258   59.8043 H         1 UNK         0.0000 
     51 H51        20.1888   31.9511   59.3862 H         1 UNK         0.0000 
     52 H52        19.5784   32.4646   57.8623 H         1 UNK         0.0000 
     53 H53        19.0698   26.9259   56.7633 H         1 UNK         0.0000 
     54 H54        20.0130   27.2201   58.9200 H         1 UNK         0.0000 
     55 H55        18.5430   26.7263   54.7473 H         1 UNK         0.0000 
     56 H56        17.4839   26.5810   52.5493 H         1 UNK         0.0000 
     57 H57        16.7860   28.6808   51.3901 H         1 UNK         0.0000 
     58 H58        18.1755   31.0262   54.4931 H         1 UNK         0.0000 
     59 H59        21.1066   32.5214   55.8496 H         1 UNK         0.0000 
     60 H60        24.7582   30.2204   49.0693 H         1 UNK         0.0000 
@<TRIPOS>BOND
     1    1    2 1    
     2    1   34 1    
     3    1   35 1    
     4    1   36 1    
     5    2    3 1    
     6    2    4 1    
     7    2   60 1    
     8    3   37 1    
     9    3   38 1    
    10    3   39 1    
    11    4    5 1    
    12    4   40 1    
    13    4   41 1    
    14    5    6 1    
    15    5   42 1    
    16    5   43 1    
    17    6    7 1    
    18    6   44 1    
    19    6   45 1    
    20    7    8 1    
    21    8    9 ar   
    22    8   13 ar   
    23    9   10 ar   
    24    9   46 1    
    25   10   11 ar   
    26   11   12 ar   
    27   11   14 1    
    28   12   13 ar   
    29   13   47 1    
    30   14   15 ar   
    31   14   33 ar   
    32   15   16 ar   
    33   15   48 1    
    34   16   17 ar   
    35   16   49 1    
    36   17   18 ar   
    37   17   50 1    
    38   18   19 1    
    39   18   33 ar   
    40   19   20 1    
    41   19   51 1    
    42   19   52 1    
    43   20   21 ar   
    44   20   25 ar   
    45   21   22 ar   
    46   22   23 ar   
    47   22   27 1    
    48   23   24 ar   
    49   23   53 1    
    50   24   25 ar   
    51   24   54 1    
    52   25   26 2    
    53   27   28 ar   
    54   27   32 ar   
    55   28   29 ar   
    56   28   55 1    
    57   29   30 ar   
    58   29   56 1    
    59   30   31 ar   
    60   30   57 1    
    61   31   32 ar   
    62   32   58 1    
    63   33   59 1    
@<TRIPOS>SUBSTRUCTURE
     1 UNK         1 GROUP             0       ****    0 ROOT    
