CHEMBL3402754_40
                    3D
 Schrodinger Suite 2020-3.
 45 48  0  0  1  0            999 V2000
   24.6590   34.1762   50.5924 C   0  0  0  0  0  0
   24.2746   33.9253   52.0374 C   0  0  0  0  0  0
   25.1740   34.1478   53.0785 C   0  0  0  0  0  0
   24.8532   33.9262   54.3784 N   0  0  0  0  0  0
   23.5930   33.4702   54.6400 C   0  0  0  0  0  0
   22.6476   33.2371   53.6867 N   0  0  0  0  0  0
   23.0058   33.4672   52.3948 C   0  0  0  0  0  0
   23.2543   33.1190   56.0657 C   0  0  0  0  0  0
   24.2471   33.1094   57.0597 C   0  0  0  0  0  0
   23.9733   32.6953   58.3618 C   0  0  0  0  0  0
   22.6941   32.2720   58.7023 C   0  0  0  0  0  0
   21.6732   32.2882   57.7495 C   0  0  0  0  0  0
   20.2574   31.8714   58.1483 C   0  0  0  0  0  0
   19.9320   30.4722   57.8106 N   0  0  0  0  0  0
   19.3972   30.2588   56.5379 N   0  0  0  0  0  0
   19.0692   29.0834   56.0994 C   0  0  0  0  0  0
   19.3270   27.9712   57.0049 C   0  0  0  0  0  0
   19.8506   28.1673   58.2382 C   0  0  0  0  0  0
   20.1920   29.4850   58.7426 C   0  0  0  0  0  0
   20.6445   29.6519   59.8792 O   0  0  0  0  0  0
   18.4743   28.8707   54.7531 C   0  0  0  0  0  0
   18.0358   27.6132   54.3055 C   0  0  0  0  0  0
   17.4494   27.4603   53.0498 C   0  0  0  0  0  0
   17.0192   26.2455   52.6483 F   0  0  0  0  0  0
   17.2973   28.5621   52.2108 C   0  0  0  0  0  0
   17.7324   29.8153   52.6298 C   0  0  0  0  0  0
   17.5797   30.8932   51.8228 F   0  0  0  0  0  0
   18.3167   29.9673   53.8856 C   0  0  0  0  0  0
   21.9564   32.7247   56.4484 C   0  0  0  0  0  0
   24.1190   33.5086   49.9195 H   0  0  0  0  0  0
   25.7260   34.0116   50.4396 H   0  0  0  0  0  0
   24.4303   35.2047   50.3131 H   0  0  0  0  0  0
   26.1753   34.5025   52.8776 H   0  0  0  0  0  0
   22.2484   33.2806   51.6443 H   0  0  0  0  0  0
   25.2609   33.4009   56.8192 H   0  0  0  0  0  0
   24.7626   32.6937   59.1005 H   0  0  0  0  0  0
   22.4923   31.9266   59.7076 H   0  0  0  0  0  0
   20.0950   32.0730   59.2091 H   0  0  0  0  0  0
   19.5442   32.5305   57.6458 H   0  0  0  0  0  0
   19.1172   26.9479   56.7312 H   0  0  0  0  0  0
   20.0395   27.3195   58.8782 H   0  0  0  0  0  0
   18.1211   26.7275   54.9114 H   0  0  0  0  0  0
   16.8419   28.4425   51.2385 H   0  0  0  0  0  0
   18.6407   30.9590   54.1723 H   0  0  0  0  0  0
   21.1592   32.7249   55.7179 H   0  0  0  0  0  0
  1  2  1  0  0  0
  1 30  1  0  0  0
  1 31  1  0  0  0
  1 32  1  0  0  0
  2  3  2  0  0  0
  2  7  1  0  0  0
  3  4  1  0  0  0
  3 33  1  0  0  0
  4  5  2  0  0  0
  5  6  1  0  0  0
  5  8  1  0  0  0
  6  7  2  0  0  0
  7 34  1  0  0  0
  8  9  2  0  0  0
  8 29  1  0  0  0
  9 10  1  0  0  0
  9 35  1  0  0  0
 10 11  2  0  0  0
 10 36  1  0  0  0
 11 12  1  0  0  0
 11 37  1  0  0  0
 12 13  1  0  0  0
 12 29  2  0  0  0
 13 14  1  0  0  0
 13 38  1  0  0  0
 13 39  1  0  0  0
 14 15  1  0  0  0
 14 19  1  0  0  0
 15 16  2  0  0  0
 16 17  1  0  0  0
 16 21  1  0  0  0
 17 18  2  0  0  0
 17 40  1  0  0  0
 18 19  1  0  0  0
 18 41  1  0  0  0
 19 20  2  0  0  0
 21 22  2  0  0  0
 21 28  1  0  0  0
 22 23  1  0  0  0
 22 42  1  0  0  0
 23 24  1  0  0  0
 23 25  2  0  0  0
 25 26  1  0  0  0
 25 43  1  0  0  0
 26 27  1  0  0  0
 26 28  2  0  0  0
 28 44  1  0  0  0
 29 45  1  0  0  0
M  END
> <s_user_Name>
CHEMBL3402754_40

> <IC50[nM]>
40

$$$$
