CHEMBL3402749_500
                    3D
 Schrodinger Suite 2020-3.
 43 46  0  0  1  0            999 V2000
   23.1880   32.9654   51.3241 C   0  0  0  0  0  0
   23.7323   33.2938   52.6892 C   0  0  0  0  0  0
   23.0073   32.9075   53.7669 O   0  0  0  0  0  0
   23.7531   33.3159   54.8274 C   0  0  0  0  0  0
   24.8721   33.9267   54.4916 N   0  0  0  0  0  0
   24.8644   33.9263   53.1729 C   0  0  0  0  0  0
   23.2892   32.9610   56.2041 C   0  0  0  0  0  0
   24.2048   32.9742   57.2615 C   0  0  0  0  0  0
   23.8221   32.5836   58.5407 C   0  0  0  0  0  0
   22.5149   32.1657   58.7756 C   0  0  0  0  0  0
   21.5818   32.1409   57.7366 C   0  0  0  0  0  0
   20.1455   31.7068   58.0189 C   0  0  0  0  0  0
   19.8732   30.2933   57.7046 N   0  0  0  0  0  0
   19.4074   30.0305   56.4136 N   0  0  0  0  0  0
   19.1391   28.8313   56.0058 C   0  0  0  0  0  0
   19.3681   27.7586   56.9585 C   0  0  0  0  0  0
   19.8455   28.0025   58.1991 C   0  0  0  0  0  0
   20.1419   29.3425   58.6718 C   0  0  0  0  0  0
   20.5653   29.5511   59.8118 O   0  0  0  0  0  0
   18.6372   28.5332   54.6463 C   0  0  0  0  0  0
   17.8474   27.4018   54.3854 C   0  0  0  0  0  0
   17.4031   27.1223   53.0956 C   0  0  0  0  0  0
   16.6416   26.0297   52.8665 F   0  0  0  0  0  0
   17.7375   27.9725   52.0441 C   0  0  0  0  0  0
   18.5167   29.1012   52.2829 C   0  0  0  0  0  0
   18.8413   29.9267   51.2621 F   0  0  0  0  0  0
   18.9657   29.3808   53.5740 C   0  0  0  0  0  0
   21.9709   32.5531   56.4542 C   0  0  0  0  0  0
   22.9983   31.8957   51.2119 H   0  0  0  0  0  0
   23.8766   33.2580   50.5307 H   0  0  0  0  0  0
   22.2474   33.4816   51.1371 H   0  0  0  0  0  0
   25.6629   34.3552   52.5844 H   0  0  0  0  0  0
   25.2268   33.2791   57.0912 H   0  0  0  0  0  0
   24.5411   32.6009   59.3448 H   0  0  0  0  0  0
   22.2263   31.8517   59.7692 H   0  0  0  0  0  0
   19.8857   31.9387   59.0540 H   0  0  0  0  0  0
   19.4697   32.3355   57.4353 H   0  0  0  0  0  0
   19.1925   26.7263   56.6886 H   0  0  0  0  0  0
   20.0255   27.1780   58.8725 H   0  0  0  0  0  0
   17.5634   26.7263   55.1785 H   0  0  0  0  0  0
   17.3976   27.7504   51.0440 H   0  0  0  0  0  0
   19.5782   30.2568   53.7298 H   0  0  0  0  0  0
   21.2542   32.5276   55.6465 H   0  0  0  0  0  0
  1  2  1  0  0  0
  1 29  1  0  0  0
  1 30  1  0  0  0
  1 31  1  0  0  0
  2  3  1  0  0  0
  2  6  2  0  0  0
  3  4  1  0  0  0
  4  5  2  0  0  0
  4  7  1  0  0  0
  5  6  1  0  0  0
  6 32  1  0  0  0
  7  8  2  0  0  0
  7 28  1  0  0  0
  8  9  1  0  0  0
  8 33  1  0  0  0
  9 10  2  0  0  0
  9 34  1  0  0  0
 10 11  1  0  0  0
 10 35  1  0  0  0
 11 12  1  0  0  0
 11 28  2  0  0  0
 12 13  1  0  0  0
 12 36  1  0  0  0
 12 37  1  0  0  0
 13 14  1  0  0  0
 13 18  1  0  0  0
 14 15  2  0  0  0
 15 16  1  0  0  0
 15 20  1  0  0  0
 16 17  2  0  0  0
 16 38  1  0  0  0
 17 18  1  0  0  0
 17 39  1  0  0  0
 18 19  2  0  0  0
 20 21  2  0  0  0
 20 27  1  0  0  0
 21 22  1  0  0  0
 21 40  1  0  0  0
 22 23  1  0  0  0
 22 24  2  0  0  0
 24 25  1  0  0  0
 24 41  1  0  0  0
 25 26  1  0  0  0
 25 27  2  0  0  0
 27 42  1  0  0  0
 28 43  1  0  0  0
M  END
> <s_user_Name>
CHEMBL3402749_500

> <IC50[nM]>
500

$$$$
