CHEMBL3402742_23
                    3D
 Schrodinger Suite 2020-3.
 57 59  0  0  1  0            999 V2000
   24.0986   34.7063   49.0484 C   0  0  0  0  0  0
   24.6432   33.2826   48.7886 N   0  3  0  0  0  0
   25.8543   33.3451   47.8288 C   0  0  0  0  0  0
   25.0189   32.4927   50.0695 C   0  0  0  0  0  0
   23.8157   32.1161   50.9601 C   0  0  0  0  0  0
   23.1879   33.2288   51.8121 C   0  0  0  0  0  0
   24.2114   33.9262   52.5318 O   0  0  0  0  0  0
   24.4007   33.9085   53.8846 C   0  0  0  0  0  0
   25.4467   34.3262   54.3754 O   0  0  0  0  0  0
   23.2923   33.4328   54.5845 N   0  0  0  0  0  0
   23.1560   33.1247   55.9447 C   0  0  0  0  0  0
   24.2128   33.1260   56.8689 C   0  0  0  0  0  0
   23.9896   32.7237   58.1852 C   0  0  0  0  0  0
   22.7192   32.3122   58.5862 C   0  0  0  0  0  0
   21.6582   32.3108   57.6778 C   0  0  0  0  0  0
   20.2579   31.8951   58.1203 C   0  0  0  0  0  0
   19.9237   30.4965   57.7849 N   0  0  0  0  0  0
   19.4310   30.2906   56.5316 N   0  0  0  0  0  0
   19.0502   29.1758   56.0241 C   0  0  0  0  0  0
   19.2185   27.8061   56.7105 C   0  0  0  0  0  0
   19.9746   27.7611   58.3757 S   0  0  0  0  0  0
   20.2175   29.5288   58.7582 C   0  0  0  0  0  0
   20.6471   29.7895   59.8854 O   0  0  0  0  0  0
   18.3886   29.1760   54.6905 C   0  0  0  0  0  0
   18.2431   27.9972   53.9358 C   0  0  0  0  0  0
   17.5693   28.0071   52.7145 C   0  0  0  0  0  0
   17.4239   26.8610   52.0143 F   0  0  0  0  0  0
   17.0348   29.1930   52.2188 C   0  0  0  0  0  0
   17.1737   30.3718   52.9443 C   0  0  0  0  0  0
   16.6469   31.5248   52.4740 F   0  0  0  0  0  0
   17.8471   30.3641   54.1637 C   0  0  0  0  0  0
   21.8822   32.7264   56.3625 C   0  0  0  0  0  0
   23.0449   34.6088   49.3014 H   0  0  0  0  0  0
   24.1862   35.2925   48.1323 H   0  0  0  0  0  0
   24.6791   35.1545   49.8572 H   0  0  0  0  0  0
   26.1448   32.3237   47.5759 H   0  0  0  0  0  0
   26.6631   33.8707   48.3419 H   0  0  0  0  0  0
   25.5459   33.8749   46.9260 H   0  0  0  0  0  0
   25.4471   31.5649   49.6903 H   0  0  0  0  0  0
   25.7990   33.0494   50.5947 H   0  0  0  0  0  0
   23.0435   31.6278   50.3649 H   0  0  0  0  0  0
   24.1756   31.3658   51.6605 H   0  0  0  0  0  0
   22.6454   33.9289   51.1891 H   0  0  0  0  0  0
   22.4243   32.7875   52.4523 H   0  0  0  0  0  0
   22.4656   33.2745   54.0316 H   0  0  0  0  0  0
   25.2150   33.4159   56.5938 H   0  0  0  0  0  0
   24.8092   32.7233   58.8896 H   0  0  0  0  0  0
   22.5614   31.9838   59.6014 H   0  0  0  0  0  0
   20.1211   32.1147   59.1822 H   0  0  0  0  0  0
   19.5349   32.5541   57.6362 H   0  0  0  0  0  0
   19.8520   27.1631   56.0983 H   0  0  0  0  0  0
   18.2473   27.3171   56.7973 H   0  0  0  0  0  0
   18.6283   27.0467   54.2749 H   0  0  0  0  0  0
   16.5075   29.1938   51.2769 H   0  0  0  0  0  0
   17.9220   31.2953   54.7066 H   0  0  0  0  0  0
   21.0593   32.7116   55.6611 H   0  0  0  0  0  0
   23.9191   32.7591   48.3116 H   0  0  0  0  0  0
  1  2  1  0  0  0
  1 33  1  0  0  0
  1 34  1  0  0  0
  1 35  1  0  0  0
  2  3  1  0  0  0
  2  4  1  0  0  0
  2 57  1  0  0  0
  3 36  1  0  0  0
  3 37  1  0  0  0
  3 38  1  0  0  0
  4  5  1  0  0  0
  4 39  1  0  0  0
  4 40  1  0  0  0
  5  6  1  0  0  0
  5 41  1  0  0  0
  5 42  1  0  0  0
  6  7  1  0  0  0
  6 43  1  0  0  0
  6 44  1  0  0  0
  7  8  1  0  0  0
  8  9  2  0  0  0
  8 10  1  0  0  0
 10 11  1  0  0  0
 10 45  1  0  0  0
 11 12  2  0  0  0
 11 32  1  0  0  0
 12 13  1  0  0  0
 12 46  1  0  0  0
 13 14  2  0  0  0
 13 47  1  0  0  0
 14 15  1  0  0  0
 14 48  1  0  0  0
 15 16  1  0  0  0
 15 32  2  0  0  0
 16 17  1  0  0  0
 16 49  1  0  0  0
 16 50  1  0  0  0
 17 18  1  0  0  0
 17 22  1  0  0  0
 18 19  2  0  0  0
 19 20  1  0  0  0
 19 24  1  0  0  0
 20 21  1  0  0  0
 20 51  1  0  0  0
 20 52  1  0  0  0
 21 22  1  0  0  0
 22 23  2  0  0  0
 24 25  2  0  0  0
 24 31  1  0  0  0
 25 26  1  0  0  0
 25 53  1  0  0  0
 26 27  1  0  0  0
 26 28  2  0  0  0
 28 29  1  0  0  0
 28 54  1  0  0  0
 29 30  1  0  0  0
 29 31  2  0  0  0
 31 55  1  0  0  0
 32 56  1  0  0  0
M  CHG  1   2   1
M  END
> <s_user_Name>
CHEMBL3402742_23

> <IC50[nM]>
23

$$$$
