@<TRIPOS>MOLECULE
CHEMBL3402753_200
46   49    1
SMALL
USER_CHARGES


@<TRIPOS>ATOM
      1 C1         24.6440   33.7566   50.5299 C.3       1 UNK         0.0000 
      2 C2         24.1955   33.6079   51.9712 C.ar      1 UNK         0.0000 
      3 C3         22.9269   33.1279   52.2874 C.ar      1 UNK         0.0000 
      4 C4         22.5559   32.9819   53.6250 C.ar      1 UNK         0.0000 
      5 C5         23.4682   33.3170   54.6402 C.ar      1 UNK         0.0000 
      6 N6         24.7033   33.8055   54.3290 N.ar      1 UNK         0.0000 
      7 C7         25.0501   33.9349   53.0237 C.ar      1 UNK         0.0000 
      8 C8         23.1953   33.0558   56.0977 C.ar      1 UNK         0.0000 
      9 C9         24.2278   33.1076   57.0532 C.ar      1 UNK         0.0000 
     10 C10        24.0151   32.7150   58.3740 C.ar      1 UNK         0.0000 
     11 C11        22.7600   32.2678   58.7755 C.ar      1 UNK         0.0000 
     12 C12        21.7005   32.2521   57.8672 C.ar      1 UNK         0.0000 
     13 C13        20.3107   31.8110   58.3229 C.3       1 UNK         0.0000 
     14 N14        19.9717   30.4315   57.9305 N.pl3     1 UNK         0.0000 
     15 N15        19.4379   30.2705   56.6488 N.2       1 UNK         0.0000 
     16 C16        19.0713   29.1173   56.1871 C.ar      1 UNK         0.0000 
     17 C17        19.3100   27.9722   57.0534 C.ar      1 UNK         0.0000 
     18 C18        19.8477   28.1160   58.2858 C.ar      1 UNK         0.0000 
     19 C19        20.2087   29.4111   58.8309 C.ar      1 UNK         0.0000 
     20 O20        20.6466   29.5360   59.9757 O.2       1 UNK         0.0000 
     21 C21        18.4362   28.9570   54.8556 C.ar      1 UNK         0.0000 
     22 C22        17.9522   30.0911   54.1748 C.ar      1 UNK         0.0000 
     23 C23        17.2982   29.9692   52.9506 C.ar      1 UNK         0.0000 
     24 F24        16.8364   31.0762   52.3231 F         1 UNK         0.0000 
     25 C25        17.1097   28.7125   52.3844 C.ar      1 UNK         0.0000 
     26 C26        17.5833   27.5775   53.0396 C.ar      1 UNK         0.0000 
     27 F27        17.3892   26.3557   52.4989 F         1 UNK         0.0000 
     28 C28        18.2471   27.6988   54.2596 C.ar      1 UNK         0.0000 
     29 C29        21.9191   32.6673   56.5497 C.ar      1 UNK         0.0000 
     30 H30        25.1758   32.8594   50.2079 H         1 UNK         0.0000 
     31 H31        25.3161   34.6083   50.4144 H         1 UNK         0.0000 
     32 H32        23.7921   33.9111   49.8659 H         1 UNK         0.0000 
     33 H33        22.2301   32.8651   51.5047 H         1 UNK         0.0000 
     34 H34        21.5777   32.5756   53.8360 H         1 UNK         0.0000 
     35 H35        26.0426   34.3121   52.8220 H         1 UNK         0.0000 
     36 H36        25.2268   33.4061   56.7732 H         1 UNK         0.0000 
     37 H37        24.8331   32.7337   59.0783 H         1 UNK         0.0000 
     38 H38        22.6120   31.9260   59.7898 H         1 UNK         0.0000 
     39 H39        20.2103   31.9631   59.4002 H         1 UNK         0.0000 
     40 H40        19.5697   32.4933   57.8958 H         1 UNK         0.0000 
     41 H41        19.0659   26.9644   56.7514 H         1 UNK         0.0000 
     42 H42        20.0179   27.2423   58.8982 H         1 UNK         0.0000 
     43 H43        18.0622   31.0791   54.5954 H         1 UNK         0.0000 
     44 H44        16.5959   28.6119   51.4403 H         1 UNK         0.0000 
     45 H45        18.5991   26.7871   54.7204 H         1 UNK         0.0000 
     46 H46        21.0819   32.6371   55.8707 H         1 UNK         0.0000 
@<TRIPOS>BOND
     1    1    2 1    
     2    1   30 1    
     3    1   31 1    
     4    1   32 1    
     5    2    3 ar   
     6    2    7 ar   
     7    3    4 ar   
     8    3   33 1    
     9    4    5 ar   
    10    4   34 1    
    11    5    6 ar   
    12    5    8 1    
    13    6    7 ar   
    14    7   35 1    
    15    8    9 ar   
    16    8   29 ar   
    17    9   10 ar   
    18    9   36 1    
    19   10   11 ar   
    20   10   37 1    
    21   11   12 ar   
    22   11   38 1    
    23   12   13 1    
    24   12   29 ar   
    25   13   14 1    
    26   13   39 1    
    27   13   40 1    
    28   14   15 ar   
    29   14   19 ar   
    30   15   16 ar   
    31   16   17 ar   
    32   16   21 1    
    33   17   18 ar   
    34   17   41 1    
    35   18   19 ar   
    36   18   42 1    
    37   19   20 2    
    38   21   22 ar   
    39   21   28 ar   
    40   22   23 ar   
    41   22   43 1    
    42   23   24 1    
    43   23   25 ar   
    44   25   26 ar   
    45   25   44 1    
    46   26   27 1    
    47   26   28 ar   
    48   28   45 1    
    49   29   46 1    
@<TRIPOS>SUBSTRUCTURE
     1 UNK         1 GROUP             0       ****    0 ROOT    
