CHEMBL3402760_1
                    3D
 Schrodinger Suite 2020-3.
 62 65  0  0  1  0            999 V2000
   24.5142   29.6953   47.9585 C   0  0  0  0  0  0
   25.0478   30.9914   47.3121 N   0  3  0  0  0  0
   25.0352   30.8721   45.7714 C   0  0  0  0  0  0
   24.2814   32.2462   47.7916 C   0  0  0  0  0  0
   24.6889   32.6254   49.2268 C   0  0  0  0  0  0
   24.0700   33.9609   49.6661 C   0  0  0  0  0  0
   24.6994   34.3776   50.8698 O   0  0  0  0  0  0
   24.2676   33.9261   52.0991 C   0  0  0  0  0  0
   25.0957   34.1824   53.1917 C   0  0  0  0  0  0
   24.7495   33.8877   54.4681 N   0  0  0  0  0  0
   23.5277   33.3148   54.6599 C   0  0  0  0  0  0
   22.6559   33.0070   53.6557 N   0  0  0  0  0  0
   23.0377   33.3162   52.3872 C   0  0  0  0  0  0
   23.1444   32.9496   56.0657 C   0  0  0  0  0  0
   24.1013   32.9515   57.0936 C   0  0  0  0  0  0
   23.7807   32.5462   58.3864 C   0  0  0  0  0  0
   22.4873   32.1321   58.6834 C   0  0  0  0  0  0
   21.5035   32.1395   57.6943 C   0  0  0  0  0  0
   20.0756   31.7262   58.0418 C   0  0  0  0  0  0
   19.7788   30.3264   57.6974 N   0  0  0  0  0  0
   19.3220   30.1063   56.3970 N   0  0  0  0  0  0
   19.0578   28.9232   55.9396 C   0  0  0  0  0  0
   19.2639   27.8190   56.8630 C   0  0  0  0  0  0
   19.7247   28.0235   58.1197 C   0  0  0  0  0  0
   20.0267   29.3467   58.6401 C   0  0  0  0  0  0
   20.4528   29.5258   59.7830 O   0  0  0  0  0  0
   18.5859   28.6953   54.5539 C   0  0  0  0  0  0
   18.8374   29.6707   53.5722 C   0  0  0  0  0  0
   18.4128   29.4909   52.2572 C   0  0  0  0  0  0
   17.7329   28.3325   51.8947 C   0  0  0  0  0  0
   17.4785   27.3446   52.8514 C   0  0  0  0  0  0
   17.9055   27.5253   54.1718 C   0  0  0  0  0  0
   16.7887   26.1237   52.4583 C   0  0  0  0  0  0
   16.2471   25.1517   52.1433 N   0  0  0  0  0  0
   21.8349   32.5514   56.3972 C   0  0  0  0  0  0
   25.0981   28.8539   47.5794 H   0  0  0  0  0  0
   23.4604   29.5878   47.6995 H   0  0  0  0  0  0
   24.6463   29.8069   49.0319 H   0  0  0  0  0  0
   25.6208   29.9926   45.4977 H   0  0  0  0  0  0
   25.4917   31.7762   45.3646 H   0  0  0  0  0  0
   23.9979   30.7731   45.4452 H   0  0  0  0  0  0
   23.2138   32.0440   47.6748 H   0  0  0  0  0  0
   24.5642   33.0446   47.1048 H   0  0  0  0  0  0
   25.7769   32.7183   49.2815 H   0  0  0  0  0  0
   24.4097   31.8543   49.9454 H   0  0  0  0  0  0
   22.9769   33.9265   49.7093 H   0  0  0  0  0  0
   24.3180   34.7240   48.9251 H   0  0  0  0  0  0
   26.0425   34.6825   53.0470 H   0  0  0  0  0  0
   22.2995   33.1186   51.6219 H   0  0  0  0  0  0
   25.1196   33.2487   56.8940 H   0  0  0  0  0  0
   24.5425   32.5454   59.1518 H   0  0  0  0  0  0
   22.2477   31.8032   59.6837 H   0  0  0  0  0  0
   19.3795   32.3699   57.5020 H   0  0  0  0  0  0
   19.8732   31.9406   59.0947 H   0  0  0  0  0  0
   19.0824   26.7951   56.5699 H   0  0  0  0  0  0
   19.8855   27.1800   58.7735 H   0  0  0  0  0  0
   19.3708   30.5777   53.8186 H   0  0  0  0  0  0
   18.6160   30.2516   51.5169 H   0  0  0  0  0  0
   17.4168   28.2056   50.8690 H   0  0  0  0  0  0
   17.6976   26.7470   54.8942 H   0  0  0  0  0  0
   21.0682   32.5367   55.6344 H   0  0  0  0  0  0
   26.0123   31.1088   47.6156 H   0  0  0  0  0  0
  1  2  1  0  0  0
  1 36  1  0  0  0
  1 37  1  0  0  0
  1 38  1  0  0  0
  2  3  1  0  0  0
  2  4  1  0  0  0
  2 62  1  0  0  0
  3 39  1  0  0  0
  3 40  1  0  0  0
  3 41  1  0  0  0
  4  5  1  0  0  0
  4 42  1  0  0  0
  4 43  1  0  0  0
  5  6  1  0  0  0
  5 44  1  0  0  0
  5 45  1  0  0  0
  6  7  1  0  0  0
  6 46  1  0  0  0
  6 47  1  0  0  0
  7  8  1  0  0  0
  8  9  2  0  0  0
  8 13  1  0  0  0
  9 10  1  0  0  0
  9 48  1  0  0  0
 10 11  2  0  0  0
 11 12  1  0  0  0
 11 14  1  0  0  0
 12 13  2  0  0  0
 13 49  1  0  0  0
 14 15  2  0  0  0
 14 35  1  0  0  0
 15 16  1  0  0  0
 15 50  1  0  0  0
 16 17  2  0  0  0
 16 51  1  0  0  0
 17 18  1  0  0  0
 17 52  1  0  0  0
 18 19  1  0  0  0
 18 35  2  0  0  0
 19 20  1  0  0  0
 19 53  1  0  0  0
 19 54  1  0  0  0
 20 21  1  0  0  0
 20 25  1  0  0  0
 21 22  2  0  0  0
 22 23  1  0  0  0
 22 27  1  0  0  0
 23 24  2  0  0  0
 23 55  1  0  0  0
 24 25  1  0  0  0
 24 56  1  0  0  0
 25 26  2  0  0  0
 27 28  2  0  0  0
 27 32  1  0  0  0
 28 29  1  0  0  0
 28 57  1  0  0  0
 29 30  2  0  0  0
 29 58  1  0  0  0
 30 31  1  0  0  0
 30 59  1  0  0  0
 31 32  2  0  0  0
 31 33  1  0  0  0
 32 60  1  0  0  0
 33 34  3  0  0  0
 35 61  1  0  0  0
M  CHG  1   2   1
M  END
> <s_user_Name>
CHEMBL3402760_1

> <IC50[nM]>
1

$$$$
