CHEMBL3402744_300
                    3D
 Schrodinger Suite 2020-3.
 42 44  0  0  1  0            999 V2000
   25.1164   34.0885   51.5934 C   0  0  0  0  0  0
   24.1301   33.7369   52.5533 O   0  0  0  0  0  0
   24.3822   33.8574   53.8672 C   0  0  0  0  0  0
   25.4212   34.3253   54.3389 O   0  0  0  0  0  0
   23.2845   33.3698   54.5611 N   0  0  0  0  0  0
   23.1453   33.1032   55.9319 C   0  0  0  0  0  0
   24.2134   33.1207   56.8434 C   0  0  0  0  0  0
   24.0130   32.7263   58.1651 C   0  0  0  0  0  0
   22.7541   32.3009   58.5857 C   0  0  0  0  0  0
   21.6774   32.2902   57.6945 C   0  0  0  0  0  0
   20.2905   31.8639   58.1736 C   0  0  0  0  0  0
   19.9601   30.4564   57.8723 N   0  0  0  0  0  0
   19.4739   30.2001   56.5844 N   0  0  0  0  0  0
   19.1911   29.0032   56.1719 C   0  0  0  0  0  0
   19.4025   27.9265   57.1277 C   0  0  0  0  0  0
   19.8697   28.1685   58.3739 C   0  0  0  0  0  0
   20.2016   29.5029   58.8403 C   0  0  0  0  0  0
   20.6427   29.7018   59.9757 O   0  0  0  0  0  0
   18.6876   28.7180   54.8040 C   0  0  0  0  0  0
   18.8911   29.6524   53.7735 C   0  0  0  0  0  0
   18.4516   29.3961   52.4744 C   0  0  0  0  0  0
   18.6544   30.3132   51.5022 F   0  0  0  0  0  0
   17.8112   28.1968   52.1757 C   0  0  0  0  0  0
   17.5967   27.2584   53.1819 C   0  0  0  0  0  0
   16.9685   26.0957   52.8982 F   0  0  0  0  0  0
   18.0276   27.5199   54.4833 C   0  0  0  0  0  0
   21.8774   32.7029   56.3720 C   0  0  0  0  0  0
   24.7176   33.9666   50.5869 H   0  0  0  0  0  0
   25.9984   33.4536   51.6874 H   0  0  0  0  0  0
   25.4266   35.1259   51.7108 H   0  0  0  0  0  0
   22.4934   33.1213   53.9845 H   0  0  0  0  0  0
   25.2119   33.4073   56.5509 H   0  0  0  0  0  0
   24.8450   32.7315   58.8552 H   0  0  0  0  0  0
   22.6174   31.9774   59.6070 H   0  0  0  0  0  0
   20.1987   32.0823   59.2391 H   0  0  0  0  0  0
   19.5424   32.5108   57.7099 H   0  0  0  0  0  0
   19.2125   26.8963   56.8666 H   0  0  0  0  0  0
   20.0246   27.3442   59.0538 H   0  0  0  0  0  0
   19.4020   30.5850   53.9648 H   0  0  0  0  0  0
   17.4868   27.9916   51.1669 H   0  0  0  0  0  0
   17.8297   26.7622   55.2275 H   0  0  0  0  0  0
   21.0463   32.6822   55.6804 H   0  0  0  0  0  0
  1  2  1  0  0  0
  1 28  1  0  0  0
  1 29  1  0  0  0
  1 30  1  0  0  0
  2  3  1  0  0  0
  3  4  2  0  0  0
  3  5  1  0  0  0
  5  6  1  0  0  0
  5 31  1  0  0  0
  6  7  2  0  0  0
  6 27  1  0  0  0
  7  8  1  0  0  0
  7 32  1  0  0  0
  8  9  2  0  0  0
  8 33  1  0  0  0
  9 10  1  0  0  0
  9 34  1  0  0  0
 10 11  1  0  0  0
 10 27  2  0  0  0
 11 12  1  0  0  0
 11 35  1  0  0  0
 11 36  1  0  0  0
 12 13  1  0  0  0
 12 17  1  0  0  0
 13 14  2  0  0  0
 14 15  1  0  0  0
 14 19  1  0  0  0
 15 16  2  0  0  0
 15 37  1  0  0  0
 16 17  1  0  0  0
 16 38  1  0  0  0
 17 18  2  0  0  0
 19 20  2  0  0  0
 19 26  1  0  0  0
 20 21  1  0  0  0
 20 39  1  0  0  0
 21 22  1  0  0  0
 21 23  2  0  0  0
 23 24  1  0  0  0
 23 40  1  0  0  0
 24 25  1  0  0  0
 24 26  2  0  0  0
 26 41  1  0  0  0
 27 42  1  0  0  0
M  END
> <s_user_Name>
CHEMBL3402744_300

> <IC50[nM]>
300

$$$$
