CHEMBL3402765_11-charged-pKa-8.1
                    3D
 Schrodinger Suite 2020-3.
 62 65  0  0  1  0            999 V2000
   17.2816   31.0754   52.1112 F   0  0  0  0  0  0
   17.5663   29.9576   52.8176 C   0  0  0  0  0  0
   17.2204   28.7069   52.3169 C   0  0  0  0  0  0
   17.5045   27.5609   53.0572 C   0  0  0  0  0  0
   17.1492   26.3482   52.5773 F   0  0  0  0  0  0
   18.1372   27.6641   54.2964 C   0  0  0  0  0  0
   18.4805   28.9202   54.8291 C   0  0  0  0  0  0
   18.1932   30.0628   54.0561 C   0  0  0  0  0  0
   19.0915   29.0865   56.1754 C   0  0  0  0  0  0
   19.4480   30.2440   56.6384 N   0  0  0  0  0  0
   19.9872   30.4154   57.9169 N   0  0  0  0  0  0
   20.3516   31.7988   58.2814 C   0  0  0  0  0  0
   21.7041   32.2478   57.7248 C   0  0  0  0  0  0
   22.8361   32.2592   58.5463 C   0  0  0  0  0  0
   24.0614   32.6950   58.0440 C   0  0  0  0  0  0
   24.1708   33.1134   56.7180 C   0  0  0  0  0  0
   23.0463   33.1012   55.8772 C   0  0  0  0  0  0
   23.0717   33.4390   54.5115 N   0  0  0  0  0  0
   24.1496   33.7673   53.6964 C   0  0  0  0  0  0
   25.3229   33.9268   54.0317 O   0  0  0  0  0  0
   23.6922   33.9229   52.4360 O   0  0  0  0  0  0
   24.5555   34.3241   51.3706 C   0  0  0  0  0  0
   24.9605   33.1210   50.5062 C   0  0  0  0  0  0
   23.7698   32.4740   49.7769 C   0  0  0  0  0  0
   24.2474   31.2754   48.9228 N   0  3  0  0  0  0
   24.9826   31.7341   47.6405 C   0  0  0  0  0  0
   25.3999   30.4887   46.8374 C   0  0  0  0  0  0
   24.2725   29.6655   46.5504 O   0  0  0  0  0  0
   23.5838   29.1848   47.7005 C   0  0  0  0  0  0
   23.0596   30.3553   48.5561 C   0  0  0  0  0  0
   21.8149   32.6843   56.3986 C   0  0  0  0  0  0
   20.2116   29.4040   58.8272 C   0  0  0  0  0  0
   20.6467   29.5340   59.9745 O   0  0  0  0  0  0
   19.8462   28.1043   58.2906 C   0  0  0  0  0  0
   19.3150   27.9488   57.0557 C   0  0  0  0  0  0
   16.7228   28.6247   51.3638 H   0  0  0  0  0  0
   18.3289   26.7384   54.8198 H   0  0  0  0  0  0
   18.4373   31.0512   54.4133 H   0  0  0  0  0  0
   20.3352   31.9552   59.3633 H   0  0  0  0  0  0
   19.5785   32.4740   57.9083 H   0  0  0  0  0  0
   22.7680   31.9276   59.5733 H   0  0  0  0  0  0
   24.9369   32.7045   58.6794 H   0  0  0  0  0  0
   25.1406   33.4331   56.3730 H   0  0  0  0  0  0
   22.1815   33.4019   54.0390 H   0  0  0  0  0  0
   25.4474   34.8305   51.7432 H   0  0  0  0  0  0
   24.0329   35.0555   50.7548 H   0  0  0  0  0  0
   25.4479   32.3780   51.1334 H   0  0  0  0  0  0
   25.7125   33.4630   49.7972 H   0  0  0  0  0  0
   23.2443   33.1592   49.1097 H   0  0  0  0  0  0
   23.0627   32.0705   50.5030 H   0  0  0  0  0  0
   25.8476   32.3258   47.9311 H   0  0  0  0  0  0
   24.2873   32.3578   47.0764 H   0  0  0  0  0  0
   26.1483   29.9176   47.3875 H   0  0  0  0  0  0
   25.8649   30.7828   45.8963 H   0  0  0  0  0  0
   24.2465   28.5388   48.2809 H   0  0  0  0  0  0
   22.7528   28.5585   47.3733 H   0  0  0  0  0  0
   22.5999   30.0141   49.4822 H   0  0  0  0  0  0
   22.3468   30.9683   48.0008 H   0  0  0  0  0  0
   20.9378   32.6688   55.7673 H   0  0  0  0  0  0
   20.0003   27.2406   58.9192 H   0  0  0  0  0  0
   19.0693   26.9394   56.7608 H   0  0  0  0  0  0
   24.8973   30.7375   49.4781 H   0  0  0  0  0  0
  1  2  1  0  0  0
  2  3  2  0  0  0
  2  8  1  0  0  0
  3  4  1  0  0  0
  3 36  1  0  0  0
  4  5  1  0  0  0
  4  6  2  0  0  0
  6  7  1  0  0  0
  6 37  1  0  0  0
  7  8  2  0  0  0
  7  9  1  0  0  0
  8 38  1  0  0  0
  9 10  2  0  0  0
  9 35  1  0  0  0
 10 11  1  0  0  0
 11 12  1  0  0  0
 11 32  1  0  0  0
 12 13  1  0  0  0
 12 39  1  0  0  0
 12 40  1  0  0  0
 13 14  2  0  0  0
 13 31  1  0  0  0
 14 15  1  0  0  0
 14 41  1  0  0  0
 15 16  2  0  0  0
 15 42  1  0  0  0
 16 17  1  0  0  0
 16 43  1  0  0  0
 17 18  1  0  0  0
 17 31  2  0  0  0
 18 19  1  0  0  0
 18 44  1  0  0  0
 19 20  2  0  0  0
 19 21  1  0  0  0
 21 22  1  0  0  0
 22 23  1  0  0  0
 22 45  1  0  0  0
 22 46  1  0  0  0
 23 24  1  0  0  0
 23 47  1  0  0  0
 23 48  1  0  0  0
 24 25  1  0  0  0
 24 49  1  0  0  0
 24 50  1  0  0  0
 25 26  1  0  0  0
 25 30  1  0  0  0
 25 62  1  0  0  0
 26 27  1  0  0  0
 26 51  1  0  0  0
 26 52  1  0  0  0
 27 28  1  0  0  0
 27 53  1  0  0  0
 27 54  1  0  0  0
 28 29  1  0  0  0
 29 30  1  0  0  0
 29 55  1  0  0  0
 29 56  1  0  0  0
 30 57  1  0  0  0
 30 58  1  0  0  0
 31 59  1  0  0  0
 32 33  2  0  0  0
 32 34  1  0  0  0
 34 35  2  0  0  0
 34 60  1  0  0  0
 35 61  1  0  0  0
M  CHG  1  25   1
M  END
> <s_user_Name>
CHEMBL3402765_11-charged-pKa-8.1

> <IC50[nM]>
11

$$$$
