@<TRIPOS>MOLECULE
CHEMBL3402760_1
62   65    1
SMALL
USER_CHARGES


@<TRIPOS>ATOM
      1 C1         24.5142   29.6953   47.9585 C.3       1 UNK         0.0000 
      2 N2         25.0478   30.9914   47.3121 N.4       1 UNK         0.0000 
      3 C3         25.0352   30.8721   45.7714 C.3       1 UNK         0.0000 
      4 C4         24.2814   32.2462   47.7916 C.3       1 UNK         0.0000 
      5 C5         24.6889   32.6254   49.2268 C.3       1 UNK         0.0000 
      6 C6         24.0700   33.9609   49.6661 C.3       1 UNK         0.0000 
      7 O7         24.6994   34.3776   50.8698 O.3       1 UNK         0.0000 
      8 C8         24.2676   33.9261   52.0991 C.ar      1 UNK         0.0000 
      9 C9         25.0957   34.1824   53.1917 C.ar      1 UNK         0.0000 
     10 N10        24.7495   33.8877   54.4681 N.ar      1 UNK         0.0000 
     11 C11        23.5277   33.3148   54.6599 C.ar      1 UNK         0.0000 
     12 N12        22.6559   33.0070   53.6557 N.ar      1 UNK         0.0000 
     13 C13        23.0377   33.3162   52.3872 C.ar      1 UNK         0.0000 
     14 C14        23.1444   32.9496   56.0657 C.ar      1 UNK         0.0000 
     15 C15        24.1013   32.9515   57.0936 C.ar      1 UNK         0.0000 
     16 C16        23.7807   32.5462   58.3864 C.ar      1 UNK         0.0000 
     17 C17        22.4873   32.1321   58.6834 C.ar      1 UNK         0.0000 
     18 C18        21.5035   32.1395   57.6943 C.ar      1 UNK         0.0000 
     19 C19        20.0756   31.7262   58.0418 C.3       1 UNK         0.0000 
     20 N20        19.7788   30.3264   57.6974 N.pl3     1 UNK         0.0000 
     21 N21        19.3220   30.1063   56.3970 N.2       1 UNK         0.0000 
     22 C22        19.0578   28.9232   55.9396 C.ar      1 UNK         0.0000 
     23 C23        19.2639   27.8190   56.8630 C.ar      1 UNK         0.0000 
     24 C24        19.7247   28.0235   58.1197 C.ar      1 UNK         0.0000 
     25 C25        20.0267   29.3467   58.6401 C.ar      1 UNK         0.0000 
     26 O26        20.4528   29.5258   59.7830 O.2       1 UNK         0.0000 
     27 C27        18.5859   28.6953   54.5539 C.ar      1 UNK         0.0000 
     28 C28        18.8374   29.6707   53.5722 C.ar      1 UNK         0.0000 
     29 C29        18.4128   29.4909   52.2572 C.ar      1 UNK         0.0000 
     30 C30        17.7329   28.3325   51.8947 C.ar      1 UNK         0.0000 
     31 C31        17.4785   27.3446   52.8514 C.ar      1 UNK         0.0000 
     32 C32        17.9055   27.5253   54.1718 C.ar      1 UNK         0.0000 
     33 C33        16.7887   26.1237   52.4583 C.1       1 UNK         0.0000 
     34 N34        16.2471   25.1517   52.1433 N.1       1 UNK         0.0000 
     35 C35        21.8349   32.5514   56.3972 C.ar      1 UNK         0.0000 
     36 H36        25.0981   28.8539   47.5794 H         1 UNK         0.0000 
     37 H37        23.4604   29.5878   47.6995 H         1 UNK         0.0000 
     38 H38        24.6463   29.8069   49.0319 H         1 UNK         0.0000 
     39 H39        25.6208   29.9926   45.4977 H         1 UNK         0.0000 
     40 H40        25.4917   31.7762   45.3646 H         1 UNK         0.0000 
     41 H41        23.9979   30.7731   45.4452 H         1 UNK         0.0000 
     42 H42        23.2138   32.0440   47.6748 H         1 UNK         0.0000 
     43 H43        24.5642   33.0446   47.1048 H         1 UNK         0.0000 
     44 H44        25.7769   32.7183   49.2815 H         1 UNK         0.0000 
     45 H45        24.4097   31.8543   49.9454 H         1 UNK         0.0000 
     46 H46        22.9769   33.9265   49.7093 H         1 UNK         0.0000 
     47 H47        24.3180   34.7240   48.9251 H         1 UNK         0.0000 
     48 H48        26.0425   34.6825   53.0470 H         1 UNK         0.0000 
     49 H49        22.2995   33.1186   51.6219 H         1 UNK         0.0000 
     50 H50        25.1196   33.2487   56.8940 H         1 UNK         0.0000 
     51 H51        24.5425   32.5454   59.1518 H         1 UNK         0.0000 
     52 H52        22.2477   31.8032   59.6837 H         1 UNK         0.0000 
     53 H53        19.3795   32.3699   57.5020 H         1 UNK         0.0000 
     54 H54        19.8732   31.9406   59.0947 H         1 UNK         0.0000 
     55 H55        19.0824   26.7951   56.5699 H         1 UNK         0.0000 
     56 H56        19.8855   27.1800   58.7735 H         1 UNK         0.0000 
     57 H57        19.3708   30.5777   53.8186 H         1 UNK         0.0000 
     58 H58        18.6160   30.2516   51.5169 H         1 UNK         0.0000 
     59 H59        17.4168   28.2056   50.8690 H         1 UNK         0.0000 
     60 H60        17.6976   26.7470   54.8942 H         1 UNK         0.0000 
     61 H61        21.0682   32.5367   55.6344 H         1 UNK         0.0000 
     62 H62        26.0123   31.1088   47.6156 H         1 UNK         0.0000 
@<TRIPOS>BOND
     1    1    2 1    
     2    1   36 1    
     3    1   37 1    
     4    1   38 1    
     5    2    3 1    
     6    2    4 1    
     7    2   62 1    
     8    3   39 1    
     9    3   40 1    
    10    3   41 1    
    11    4    5 1    
    12    4   42 1    
    13    4   43 1    
    14    5    6 1    
    15    5   44 1    
    16    5   45 1    
    17    6    7 1    
    18    6   46 1    
    19    6   47 1    
    20    7    8 1    
    21    8    9 ar   
    22    8   13 ar   
    23    9   10 ar   
    24    9   48 1    
    25   10   11 ar   
    26   11   12 ar   
    27   11   14 1    
    28   12   13 ar   
    29   13   49 1    
    30   14   15 ar   
    31   14   35 ar   
    32   15   16 ar   
    33   15   50 1    
    34   16   17 ar   
    35   16   51 1    
    36   17   18 ar   
    37   17   52 1    
    38   18   19 1    
    39   18   35 ar   
    40   19   20 1    
    41   19   53 1    
    42   19   54 1    
    43   20   21 ar   
    44   20   25 ar   
    45   21   22 ar   
    46   22   23 ar   
    47   22   27 1    
    48   23   24 ar   
    49   23   55 1    
    50   24   25 ar   
    51   24   56 1    
    52   25   26 2    
    53   27   28 ar   
    54   27   32 ar   
    55   28   29 ar   
    56   28   57 1    
    57   29   30 ar   
    58   29   58 1    
    59   30   31 ar   
    60   30   59 1    
    61   31   32 ar   
    62   31   33 1    
    63   32   60 1    
    64   33   34 3    
    65   35   61 1    
@<TRIPOS>SUBSTRUCTURE
     1 UNK         1 GROUP             0       ****    0 ROOT    
