@<TRIPOS>MOLECULE
/home/yujie/leadopt/data/result/selection/AAK1/lig_14.sdf:1
46   48    1
SMALL
USER_CHARGES


@<TRIPOS>ATOM
      1 C1          7.2984   39.6124  -31.0347 C.3       1 UNK         0.0000 
      2 C2          6.6117   40.9673  -31.2722 C.3       1 UNK         0.0000 
      3 O3          5.3441   41.0405  -30.6131 O.3       1 UNK         0.0000 
      4 C4          4.2431   40.3596  -31.1097 C.ar      1 UNK         0.0000 
      5 N5          4.3510   39.7283  -32.3078 N.ar      1 UNK         0.0000 
      6 C6          3.2420   39.0889  -32.7583 C.ar      1 UNK         0.0000 
      7 N7          2.0453   39.0023  -32.1171 N.ar      1 UNK         0.0000 
      8 C8          1.9445   39.6410  -30.9141 C.ar      1 UNK         0.0000 
      9 C9          0.7206   39.6030  -30.2040 C.ar      1 UNK         0.0000 
     10 C10         0.5921   40.2769  -28.9883 C.ar      1 UNK         0.0000 
     11 C11         1.6578   41.0007  -28.4479 C.ar      1 UNK         0.0000 
     12 C12         2.8806   41.0376  -29.1224 C.ar      1 UNK         0.0000 
     13 C13         3.0414   40.3645  -30.3572 C.ar      1 UNK         0.0000 
     14 C14         1.5018   41.7374  -27.1604 C.2       1 UNK         0.0000 
     15 C15         0.5841   41.7361  -26.1174 C.2       1 UNK         0.0000 
     16 N16         0.9294   42.5940  -25.1742 N.2       1 UNK         0.0000 
     17 C17         2.0293   43.1408  -25.6298 C.2       1 UNK         0.0000 
     18 O18         2.4397   42.6610  -26.8298 O.3       1 UNK         0.0000 
     19 C19         3.3496   38.3936  -34.1217 C.3       1 UNK         0.0000 
     20 N20         4.1274   37.1692  -34.0014 N.3       1 UNK         0.0000 
     21 C21         4.0025   39.2595  -35.2346 C.3       1 UNK         0.0000 
     22 C22         3.3174   40.6178  -35.5340 C.3       1 UNK         0.0000 
     23 C23         1.8407   40.4571  -35.9378 C.3       1 UNK         0.0000 
     24 C24         4.0872   41.4018  -36.6118 C.3       1 UNK         0.0000 
     25 H25         8.2985   39.6000  -31.4673 H         1 UNK         0.0000 
     26 H26         6.7387   38.7879  -31.4755 H         1 UNK         0.0000 
     27 H27         7.3956   39.4071  -29.9686 H         1 UNK         0.0000 
     28 H28         7.2371   41.7591  -30.8589 H         1 UNK         0.0000 
     29 H29         6.5205   41.1852  -32.3380 H         1 UNK         0.0000 
     30 H30        -0.1148   39.0569  -30.6184 H         1 UNK         0.0000 
     31 H31        -0.3551   40.2459  -28.4695 H         1 UNK         0.0000 
     32 H32         3.7188   41.5842  -28.7136 H         1 UNK         0.0000 
     33 H33        -0.3034   41.1253  -26.0363 H         1 UNK         0.0000 
     34 H34         2.6523   43.9001  -25.1802 H         1 UNK         0.0000 
     35 H35         2.3539   38.0909  -34.4514 H         1 UNK         0.0000 
     36 H36         5.0293   37.3724  -33.5945 H         1 UNK         0.0000 
     37 H37         3.6523   36.5299  -33.3762 H         1 UNK         0.0000 
     38 H38         5.0477   39.4451  -34.9801 H         1 UNK         0.0000 
     39 H39         4.0264   38.6775  -36.1579 H         1 UNK         0.0000 
     40 H40         3.3480   41.2198  -34.6242 H         1 UNK         0.0000 
     41 H41         1.7303   39.7529  -36.7630 H         1 UNK         0.0000 
     42 H42         1.2483   40.0957  -35.0981 H         1 UNK         0.0000 
     43 H43         1.4024   41.4050  -36.2527 H         1 UNK         0.0000 
     44 H44         4.0860   40.8787  -37.5691 H         1 UNK         0.0000 
     45 H45         3.6413   42.3837  -36.7741 H         1 UNK         0.0000 
     46 H46         5.1262   41.5634  -36.3227 H         1 UNK         0.0000 
@<TRIPOS>BOND
     1    1    2 1    
     2    1   25 1    
     3    1   26 1    
     4    1   27 1    
     5    2    3 1    
     6    2   28 1    
     7    2   29 1    
     8    3    4 1    
     9    4   13 ar   
    10    4    5 ar   
    11    5    6 ar   
    12    6    7 ar   
    13    6   19 1    
    14    7    8 ar   
    15    8   13 ar   
    16    8    9 ar   
    17    9   10 ar   
    18    9   30 1    
    19   10   11 ar   
    20   10   31 1    
    21   11   12 ar   
    22   11   14 1    
    23   12   13 ar   
    24   12   32 1    
    25   14   18 1    
    26   14   15 2    
    27   15   16 1    
    28   15   33 1    
    29   16   17 2    
    30   17   18 1    
    31   17   34 1    
    32   19   20 1    
    33   19   21 1    
    34   19   35 1    
    35   20   36 1    
    36   20   37 1    
    37   21   22 1    
    38   21   38 1    
    39   21   39 1    
    40   22   23 1    
    41   22   24 1    
    42   22   40 1    
    43   23   41 1    
    44   23   42 1    
    45   23   43 1    
    46   24   44 1    
    47   24   45 1    
    48   24   46 1    
@<TRIPOS>SUBSTRUCTURE
     1 UNK         1 GROUP             0       ****    0 ROOT    
