@<TRIPOS>MOLECULE
/home/yujie/leadopt/data/result/selection/AAK1/lig_15.sdf:1
45   47    1
SMALL
USER_CHARGES


@<TRIPOS>ATOM
      1 C1          6.6712   41.1184  -31.4664 C.3       1 UNK         0.0000 
      2 N2          5.4227   41.0987  -30.7098 N.pl3     1 UNK         0.0000 
      3 C3          4.2953   40.3703  -31.1379 C.ar      1 UNK         0.0000 
      4 N4          4.3862   39.7042  -32.3202 N.ar      1 UNK         0.0000 
      5 C5          3.3093   38.9953  -32.7405 C.ar      1 UNK         0.0000 
      6 N6          2.1767   38.9111  -32.0201 N.pl3     1 UNK         0.0000 
      7 C7          2.0093   39.5735  -30.8257 C.ar      1 UNK         0.0000 
      8 C8          0.7930   39.5058  -30.1160 C.ar      1 UNK         0.0000 
      9 C9          0.6621   40.2273  -28.9301 C.ar      1 UNK         0.0000 
     10 C10         1.7116   40.9995  -28.4292 C.ar      1 UNK         0.0000 
     11 C11         2.9261   41.0593  -29.1203 C.ar      1 UNK         0.0000 
     12 C12         3.1047   40.3539  -30.3449 C.ar      1 UNK         0.0000 
     13 C13         1.5270   41.7568  -27.1583 C.2       1 UNK         0.0000 
     14 C14         0.6429   41.6936  -26.0874 C.2       1 UNK         0.0000 
     15 N15         0.9296   42.6029  -25.1747 N.2       1 UNK         0.0000 
     16 C16         1.9628   43.2371  -25.6747 C.2       1 UNK         0.0000 
     17 O17         2.3817   42.7721  -26.8789 O.3       1 UNK         0.0000 
     18 C18         3.3831   38.2625  -34.0861 C.3       1 UNK         0.0000 
     19 N19         4.1301   37.0215  -33.9445 N.3       1 UNK         0.0000 
     20 C20         4.0477   39.0876  -35.2232 C.3       1 UNK         0.0000 
     21 C21         3.3955   40.4622  -35.5294 C.3       1 UNK         0.0000 
     22 C22         1.9081   40.3412  -35.9066 C.3       1 UNK         0.0000 
     23 C23         4.1699   41.2176  -36.6239 C.3       1 UNK         0.0000 
     24 H24         7.4021   41.7635  -30.9782 H         1 UNK         0.0000 
     25 H25         7.0969   40.1159  -31.5337 H         1 UNK         0.0000 
     26 H26         6.5110   41.4935  -32.4782 H         1 UNK         0.0000 
     27 H27         5.3894   41.5862  -29.8271 H         1 UNK         0.0000 
     28 H28        -0.0282   38.9162  -30.4978 H         1 UNK         0.0000 
     29 H29        -0.2725   40.1998  -28.3917 H         1 UNK         0.0000 
     30 H30         3.7333   41.6567  -28.7232 H         1 UNK         0.0000 
     31 H31        -0.1796   41.0042  -25.9620 H         1 UNK         0.0000 
     32 H32         2.5254   44.0605  -25.2593 H         1 UNK         0.0000 
     33 H33         2.3758   37.9837  -34.4002 H         1 UNK         0.0000 
     34 H34         3.5689   36.3369  -33.4510 H         1 UNK         0.0000 
     35 H35         4.3175   36.6171  -34.8503 H         1 UNK         0.0000 
     36 H36         4.0413   38.4962  -36.1404 H         1 UNK         0.0000 
     37 H37         5.1016   39.2450  -34.9841 H         1 UNK         0.0000 
     38 H38         3.4536   41.0751  -34.6284 H         1 UNK         0.0000 
     39 H39         1.7605   39.6692  -36.7528 H         1 UNK         0.0000 
     40 H40         1.4838   41.3094  -36.1772 H         1 UNK         0.0000 
     41 H41         1.3292   39.9606  -35.0668 H         1 UNK         0.0000 
     42 H42         4.1436   40.6852  -37.5756 H         1 UNK         0.0000 
     43 H43         3.7457   42.2081  -36.7907 H         1 UNK         0.0000 
     44 H44         5.2160   41.3572  -36.3495 H         1 UNK         0.0000 
     45 H45         1.4329   38.3267  -32.3737 H         1 UNK         0.0000 
@<TRIPOS>BOND
     1    1    2 1    
     2    1   24 1    
     3    1   25 1    
     4    1   26 1    
     5    2    3 1    
     6    2   27 1    
     7    3   12 ar   
     8    3    4 ar   
     9    4    5 ar   
    10    5    6 ar   
    11    5   18 1    
    12    6    7 ar   
    13    6   45 1    
    14    7   12 ar   
    15    7    8 ar   
    16    8    9 ar   
    17    8   28 1    
    18    9   10 ar   
    19    9   29 1    
    20   10   11 ar   
    21   10   13 1    
    22   11   12 ar   
    23   11   30 1    
    24   13   17 1    
    25   13   14 2    
    26   14   15 1    
    27   14   31 1    
    28   15   16 2    
    29   16   17 1    
    30   16   32 1    
    31   18   19 1    
    32   18   20 1    
    33   18   33 1    
    34   19   34 1    
    35   19   35 1    
    36   20   21 1    
    37   20   36 1    
    38   20   37 1    
    39   21   22 1    
    40   21   23 1    
    41   21   38 1    
    42   22   39 1    
    43   22   40 1    
    44   22   41 1    
    45   23   42 1    
    46   23   43 1    
    47   23   44 1    
@<TRIPOS>SUBSTRUCTURE
     1 UNK         1 GROUP             0       ****    0 ROOT    
