@<TRIPOS>MOLECULE
/home/yujie/leadopt/data/result/selection/AAK1/lig_26.sdf:1
44   46    1
SMALL
USER_CHARGES


@<TRIPOS>ATOM
      1 C1          2.4496   41.2476  -36.7337 C.3       1 UNK         0.0000 
      2 C2          3.4740   40.6235  -35.7661 C.3       1 UNK         0.0000 
      3 C3          4.9087   40.9450  -36.2275 C.3       1 UNK         0.0000 
      4 C4          3.2275   39.1011  -35.5701 C.3       1 UNK         0.0000 
      5 C5          4.0439   38.4299  -34.4303 C.3       1 UNK         0.0000 
      6 N6          3.7296   36.9235  -34.4237 N.4       1 UNK         0.0000 
      7 C7          3.8012   39.0551  -33.0602 C.ar      1 UNK         0.0000 
      8 N8          2.5841   38.8412  -32.4946 N.ar      1 UNK         0.0000 
      9 C9          2.3497   39.4425  -31.2944 C.ar      1 UNK         0.0000 
     10 C10         1.0783   39.2962  -30.6973 C.ar      1 UNK         0.0000 
     11 C11         0.7911   39.9402  -29.4968 C.ar      1 UNK         0.0000 
     12 C12         1.7486   40.7160  -28.8327 C.ar      1 UNK         0.0000 
     13 C13         3.0219   40.8488  -29.4011 C.ar      1 UNK         0.0000 
     14 C14         3.3394   40.2427  -30.6459 C.ar      1 UNK         0.0000 
     15 C15         4.5778   40.3736  -31.3474 C.ar      1 UNK         0.0000 
     16 N16         4.8122   39.7995  -32.5526 N.ar      1 UNK         0.0000 
     17 C17         5.6932   41.1694  -30.8421 C.1       1 UNK         0.0000 
     18 N18         6.5733   41.8035  -30.4386 N.1       1 UNK         0.0000 
     19 C19         1.4284   41.3895  -27.5401 C.ar      1 UNK         0.0000 
     20 C20         0.5863   40.7842  -26.5942 C.ar      1 UNK         0.0000 
     21 C21         0.3718   41.4132  -25.3684 C.ar      1 UNK         0.0000 
     22 N22         0.9316   42.6030  -25.0436 N.ar      1 UNK         0.0000 
     23 C23         1.7243   43.2012  -25.9638 C.ar      1 UNK         0.0000 
     24 C24         1.9862   42.6375  -27.2135 C.ar      1 UNK         0.0000 
     25 H25         2.5308   40.8331  -37.7386 H         1 UNK         0.0000 
     26 H26         2.5916   42.3263  -36.8178 H         1 UNK         0.0000 
     27 H27         1.4261   41.0874  -36.3923 H         1 UNK         0.0000 
     28 H28         3.3297   41.1166  -34.8033 H         1 UNK         0.0000 
     29 H29         5.1437   40.4637  -37.1778 H         1 UNK         0.0000 
     30 H30         5.0432   42.0184  -36.3685 H         1 UNK         0.0000 
     31 H31         5.6506   40.6253  -35.4954 H         1 UNK         0.0000 
     32 H32         2.1649   38.9425  -35.3763 H         1 UNK         0.0000 
     33 H33         3.4322   38.5930  -36.5152 H         1 UNK         0.0000 
     34 H34         5.1106   38.4375  -34.6663 H         1 UNK         0.0000 
     35 H35         4.3078   36.4515  -33.7420 H         1 UNK         0.0000 
     36 H36         2.7591   36.7435  -34.1713 H         1 UNK         0.0000 
     37 H37         0.3265   38.6984  -31.1908 H         1 UNK         0.0000 
     38 H38        -0.2007   39.8350  -29.0801 H         1 UNK         0.0000 
     39 H39         3.7793   41.4321  -28.8977 H         1 UNK         0.0000 
     40 H40         0.1317   39.8245  -26.7849 H         1 UNK         0.0000 
     41 H41        -0.2671   40.9670  -24.6191 H         1 UNK         0.0000 
     42 H42         2.1484   44.1560  -25.6860 H         1 UNK         0.0000 
     43 H43         2.6224   43.1636  -27.9086 H         1 UNK         0.0000 
     44 H44         3.8991   36.5047  -35.3266 H         1 UNK         0.0000 
@<TRIPOS>BOND
     1    1    2 1    
     2    1   25 1    
     3    1   26 1    
     4    1   27 1    
     5    2    3 1    
     6    2    4 1    
     7    2   28 1    
     8    3   29 1    
     9    3   30 1    
    10    3   31 1    
    11    4    5 1    
    12    4   32 1    
    13    4   33 1    
    14    5    6 1    
    15    5    7 1    
    16    5   34 1    
    17    6   35 1    
    18    6   36 1    
    19    6   44 1    
    20    7   16 ar   
    21    7    8 ar   
    22    8    9 ar   
    23    9   14 ar   
    24    9   10 ar   
    25   10   11 ar   
    26   10   37 1    
    27   11   12 ar   
    28   11   38 1    
    29   12   13 ar   
    30   12   19 1    
    31   13   14 ar   
    32   13   39 1    
    33   14   15 ar   
    34   15   16 ar   
    35   15   17 1    
    36   17   18 3    
    37   19   24 ar   
    38   19   20 ar   
    39   20   21 ar   
    40   20   40 1    
    41   21   22 ar   
    42   21   41 1    
    43   22   23 ar   
    44   23   24 ar   
    45   23   42 1    
    46   24   43 1    
@<TRIPOS>SUBSTRUCTURE
     1 UNK         1 GROUP             0       ****    0 ROOT    
