@<TRIPOS>MOLECULE
/home/yujie/leadopt/data/result/selection/AAK1/lig_11.sdf:1
46   48    1
SMALL
USER_CHARGES


@<TRIPOS>ATOM
      1 C1          6.6005   40.3880  -29.5401 C.3       1 UNK         0.0000 
      2 C2          5.8001   41.1242  -30.6276 C.3       1 UNK         0.0000 
      3 C3          4.5137   40.4009  -31.0166 C.ar      1 UNK         0.0000 
      4 N4          4.5899   39.6501  -32.1407 N.ar      1 UNK         0.0000 
      5 C5          3.4463   39.0211  -32.5099 C.ar      1 UNK         0.0000 
      6 N6          2.2549   39.0435  -31.8580 N.ar      1 UNK         0.0000 
      7 C7          2.1972   39.7855  -30.7158 C.ar      1 UNK         0.0000 
      8 C8          0.9800   39.8370  -29.9960 C.ar      1 UNK         0.0000 
      9 C9          0.8911   40.5890  -28.8272 C.ar      1 UNK         0.0000 
     10 C10         1.9853   41.3122  -28.3514 C.ar      1 UNK         0.0000 
     11 C11         3.1978   41.2807  -29.0439 C.ar      1 UNK         0.0000 
     12 C12         3.3286   40.5158  -30.2314 C.ar      1 UNK         0.0000 
     13 C13         1.8644   42.1141  -27.1025 C.2       1 UNK         0.0000 
     14 C14         0.9397   42.1999  -26.0722 C.2       1 UNK         0.0000 
     15 N15         1.3285   43.0737  -25.1637 N.2       1 UNK         0.0000 
     16 C16         2.4727   43.5256  -25.6165 C.2       1 UNK         0.0000 
     17 O17         2.8610   42.9851  -26.7968 O.3       1 UNK         0.0000 
     18 C18         3.5031   38.1921  -33.7867 C.3       1 UNK         0.0000 
     19 N19         4.3490   36.9309  -33.5605 N.4       1 UNK         0.0000 
     20 C20         4.0707   38.9525  -35.0191 C.3       1 UNK         0.0000 
     21 C21         3.3683   40.2935  -35.3651 C.3       1 UNK         0.0000 
     22 C22         1.8689   40.1211  -35.6602 C.3       1 UNK         0.0000 
     23 C23         4.0726   41.0118  -36.5325 C.3       1 UNK         0.0000 
     24 H24         7.5035   40.9390  -29.2741 H         1 UNK         0.0000 
     25 H25         6.0158   40.2501  -28.6299 H         1 UNK         0.0000 
     26 H26         6.9111   39.4013  -29.8854 H         1 UNK         0.0000 
     27 H27         6.4356   41.2385  -31.5090 H         1 UNK         0.0000 
     28 H28         5.5714   42.1434  -30.3141 H         1 UNK         0.0000 
     29 H29         0.1239   39.2857  -30.3588 H         1 UNK         0.0000 
     30 H30        -0.0468   40.6160  -28.2932 H         1 UNK         0.0000 
     31 H31         4.0476   41.8301  -28.6682 H         1 UNK         0.0000 
     32 H32         0.0224   41.6419  -25.9710 H         1 UNK         0.0000 
     33 H33         3.1379   44.2561  -25.1821 H         1 UNK         0.0000 
     34 H34         2.5163   37.7825  -34.0147 H         1 UNK         0.0000 
     35 H35         3.9786   36.4030  -32.7795 H         1 UNK         0.0000 
     36 H36         4.3340   36.3327  -34.3759 H         1 UNK         0.0000 
     37 H37         4.0295   38.2991  -35.8917 H         1 UNK         0.0000 
     38 H38         5.1305   39.1548  -34.8536 H         1 UNK         0.0000 
     39 H39         3.4561   40.9522  -34.4994 H         1 UNK         0.0000 
     40 H40         1.7009   39.3938  -36.4529 H         1 UNK         0.0000 
     41 H41         1.4125   41.0598  -35.9750 H         1 UNK         0.0000 
     42 H42         1.3301   39.7883  -34.7721 H         1 UNK         0.0000 
     43 H43         4.0074   40.4417  -37.4605 H         1 UNK         0.0000 
     44 H44         3.6270   41.9914  -36.7199 H         1 UNK         0.0000 
     45 H45         5.1298   41.1802  -36.3209 H         1 UNK         0.0000 
     46 H46         5.3030   37.1887  -33.3424 H         1 UNK         0.0000 
@<TRIPOS>BOND
     1    1    2 1    
     2    1   24 1    
     3    1   25 1    
     4    1   26 1    
     5    2    3 1    
     6    2   27 1    
     7    2   28 1    
     8    3   12 ar   
     9    3    4 ar   
    10    4    5 ar   
    11    5    6 ar   
    12    5   18 1    
    13    6    7 ar   
    14    7   12 ar   
    15    7    8 ar   
    16    8    9 ar   
    17    8   29 1    
    18    9   10 ar   
    19    9   30 1    
    20   10   11 ar   
    21   10   13 1    
    22   11   12 ar   
    23   11   31 1    
    24   13   17 1    
    25   13   14 2    
    26   14   15 1    
    27   14   32 1    
    28   15   16 2    
    29   16   17 1    
    30   16   33 1    
    31   18   19 1    
    32   18   20 1    
    33   18   34 1    
    34   19   35 1    
    35   19   36 1    
    36   19   46 1    
    37   20   21 1    
    38   20   37 1    
    39   20   38 1    
    40   21   22 1    
    41   21   23 1    
    42   21   39 1    
    43   22   40 1    
    44   22   41 1    
    45   22   42 1    
    46   23   43 1    
    47   23   44 1    
    48   23   45 1    
@<TRIPOS>SUBSTRUCTURE
     1 UNK         1 GROUP             0       ****    0 ROOT    
