@<TRIPOS>MOLECULE
/home/yujie/leadopt/data/result/selection/AAK1/lig_(R)-11.sdf:1
46   48    1
SMALL
USER_CHARGES


@<TRIPOS>ATOM
      1 C1          6.5989   40.3887  -29.5386 C.3       1 UNK         0.0000 
      2 C2          5.8009   41.1242  -30.6281 C.3       1 UNK         0.0000 
      3 C3          4.5141   40.4007  -31.0175 C.ar      1 UNK         0.0000 
      4 N4          4.5901   39.6500  -32.1416 N.ar      1 UNK         0.0000 
      5 C5          3.4465   39.0213  -32.5110 C.ar      1 UNK         0.0000 
      6 N6          2.2550   39.0442  -31.8598 N.ar      1 UNK         0.0000 
      7 C7          2.1973   39.7866  -30.7182 C.ar      1 UNK         0.0000 
      8 C8          0.9799   39.8376  -29.9986 C.ar      1 UNK         0.0000 
      9 C9          0.8903   40.5898  -28.8296 C.ar      1 UNK         0.0000 
     10 C10         1.9846   41.3128  -28.3535 C.ar      1 UNK         0.0000 
     11 C11         3.1976   41.2812  -29.0453 C.ar      1 UNK         0.0000 
     12 C12         3.3290   40.5158  -30.2327 C.ar      1 UNK         0.0000 
     13 C13         1.8638   42.1156  -27.1051 C.2       1 UNK         0.0000 
     14 C14         0.9406   42.1994  -26.0737 C.2       1 UNK         0.0000 
     15 N15         1.3285   43.0739  -25.1655 N.2       1 UNK         0.0000 
     16 C16         2.4733   43.5252  -25.6168 C.2       1 UNK         0.0000 
     17 O17         2.8607   42.9862  -26.7981 O.3       1 UNK         0.0000 
     18 C18         3.5038   38.1920  -33.7879 C.3       1 UNK         0.0000 
     19 N19         4.3498   36.9309  -33.5613 N.4       1 UNK         0.0000 
     20 C20         4.0714   38.9519  -35.0200 C.3       1 UNK         0.0000 
     21 C21         3.3695   40.2931  -35.3666 C.3       1 UNK         0.0000 
     22 C22         1.8693   40.1219  -35.6608 C.3       1 UNK         0.0000 
     23 C23         4.0738   41.0114  -36.5341 C.3       1 UNK         0.0000 
     24 H24         2.5174   37.7814  -34.0160 H         1 UNK         0.0000 
     25 H25         7.5015   40.9391  -29.2719 H         1 UNK         0.0000 
     26 H26         6.0133   40.2513  -28.6295 H         1 UNK         0.0000 
     27 H27         6.9103   39.4015  -29.8831 H         1 UNK         0.0000 
     28 H28         6.4370   41.2358  -31.5090 H         1 UNK         0.0000 
     29 H29         5.5721   42.1434  -30.3158 H         1 UNK         0.0000 
     30 H30         0.1235   39.2869  -30.3611 H         1 UNK         0.0000 
     31 H31        -0.0480   40.6169  -28.2954 H         1 UNK         0.0000 
     32 H32         4.0473   41.8303  -28.6697 H         1 UNK         0.0000 
     33 H33         0.0236   41.6414  -25.9729 H         1 UNK         0.0000 
     34 H34         3.1390   44.2545  -25.1816 H         1 UNK         0.0000 
     35 H35         3.9796   36.4040  -32.7793 H         1 UNK         0.0000 
     36 H36         4.3337   36.3321  -34.3765 H         1 UNK         0.0000 
     37 H37         4.0300   38.2988  -35.8929 H         1 UNK         0.0000 
     38 H38         5.1312   39.1541  -34.8553 H         1 UNK         0.0000 
     39 H39         3.4580   40.9522  -34.5008 H         1 UNK         0.0000 
     40 H40         1.7007   39.3942  -36.4538 H         1 UNK         0.0000 
     41 H41         1.4134   41.0612  -35.9744 H         1 UNK         0.0000 
     42 H42         1.3304   39.7892  -34.7721 H         1 UNK         0.0000 
     43 H43         4.0064   40.4411  -37.4620 H         1 UNK         0.0000 
     44 H44         3.6292   41.9911  -36.7208 H         1 UNK         0.0000 
     45 H45         5.1313   41.1777  -36.3233 H         1 UNK         0.0000 
     46 H46         5.3041   37.1875  -33.3441 H         1 UNK         0.0000 
@<TRIPOS>BOND
     1    1    2 1    
     2    1   25 1    
     3    1   26 1    
     4    1   27 1    
     5    2    3 1    
     6    2   28 1    
     7    2   29 1    
     8    3   12 ar   
     9    3    4 ar   
    10    4    5 ar   
    11    5    6 ar   
    12    5   18 1    
    13    6    7 ar   
    14    7   12 ar   
    15    7    8 ar   
    16    8    9 ar   
    17    8   30 1    
    18    9   10 ar   
    19    9   31 1    
    20   10   11 ar   
    21   10   13 1    
    22   11   12 ar   
    23   11   32 1    
    24   13   17 1    
    25   13   14 2    
    26   14   15 1    
    27   14   33 1    
    28   15   16 2    
    29   16   17 1    
    30   16   34 1    
    31   18   24 1    
    32   18   19 1    
    33   18   20 1    
    34   19   35 1    
    35   19   36 1    
    36   19   46 1    
    37   20   21 1    
    38   20   37 1    
    39   20   38 1    
    40   21   22 1    
    41   21   23 1    
    42   21   39 1    
    43   22   40 1    
    44   22   41 1    
    45   22   42 1    
    46   23   43 1    
    47   23   44 1    
    48   23   45 1    
@<TRIPOS>SUBSTRUCTURE
     1 UNK         1 GROUP             0       ****    0 ROOT    
