@<TRIPOS>MOLECULE
/home/yujie/leadopt/data/result/selection/AAK1/lig_13.sdf:1
43   45    1
SMALL
USER_CHARGES


@<TRIPOS>ATOM
      1 C1          6.6775   41.3598  -31.3235 C.3       1 UNK         0.0000 
      2 O2          5.4493   41.3148  -30.5983 O.3       1 UNK         0.0000 
      3 C3          4.4004   40.5405  -31.0667 C.ar      1 UNK         0.0000 
      4 N4          4.5584   39.8666  -32.2378 N.ar      1 UNK         0.0000 
      5 C5          3.4963   39.1336  -32.6594 C.ar      1 UNK         0.0000 
      6 N6          2.3031   39.0013  -32.0231 N.ar      1 UNK         0.0000 
      7 C7          2.1559   39.6738  -30.8458 C.ar      1 UNK         0.0000 
      8 C8          0.9342   39.5740  -30.1400 C.ar      1 UNK         0.0000 
      9 C9          0.7602   40.2648  -28.9409 C.ar      1 UNK         0.0000 
     10 C10         1.7769   41.0669  -28.4179 C.ar      1 UNK         0.0000 
     11 C11         2.9928   41.1791  -29.0956 C.ar      1 UNK         0.0000 
     12 C12         3.2003   40.4862  -30.3125 C.ar      1 UNK         0.0000 
     13 C13         1.5715   41.8033  -27.1416 C.2       1 UNK         0.0000 
     14 C14         0.6376   41.7628  -26.1163 C.2       1 UNK         0.0000 
     15 N15         0.9297   42.6378  -25.1737 N.2       1 UNK         0.0000 
     16 C16         2.0121   43.2318  -25.6109 C.2       1 UNK         0.0000 
     17 O17         2.4618   42.7681  -26.8027 O.3       1 UNK         0.0000 
     18 C18         3.6500   38.3784  -33.9843 C.3       1 UNK         0.0000 
     19 N19         4.5928   37.2785  -33.8326 N.3       1 UNK         0.0000 
     20 C20         4.1256   39.2661  -35.1684 C.3       1 UNK         0.0000 
     21 C21         3.2756   40.5326  -35.4529 C.3       1 UNK         0.0000 
     22 C22         1.7928   40.2024  -35.7038 C.3       1 UNK         0.0000 
     23 C23         3.8552   41.3508  -36.6222 C.3       1 UNK         0.0000 
     24 H24         7.3796   42.0131  -30.8057 H         1 UNK         0.0000 
     25 H25         7.1340   40.3718  -31.3933 H         1 UNK         0.0000 
     26 H26         6.5357   41.7548  -32.3304 H         1 UNK         0.0000 
     27 H27         0.1384   38.9622  -30.5403 H         1 UNK         0.0000 
     28 H28        -0.1836   40.1817  -28.4210 H         1 UNK         0.0000 
     29 H29         3.7913   41.7932  -28.7024 H         1 UNK         0.0000 
     30 H30        -0.2215   41.1113  -26.0454 H         1 UNK         0.0000 
     31 H31         2.5933   44.0190  -25.1527 H         1 UNK         0.0000 
     32 H32         2.6958   37.9199  -34.2523 H         1 UNK         0.0000 
     33 H33         5.5117   37.6408  -33.6202 H         1 UNK         0.0000 
     34 H34         4.3159   36.6846  -33.0596 H         1 UNK         0.0000 
     35 H35         4.1520   38.6554  -36.0722 H         1 UNK         0.0000 
     36 H36         5.1573   39.5767  -34.9944 H         1 UNK         0.0000 
     37 H37         3.3294   41.1738  -34.5719 H         1 UNK         0.0000 
     38 H38         1.6771   39.4794  -36.5118 H         1 UNK         0.0000 
     39 H39         1.2232   41.0930  -35.9739 H         1 UNK         0.0000 
     40 H40         1.3292   39.7882  -34.8094 H         1 UNK         0.0000 
     41 H41         3.8285   40.7911  -37.5593 H         1 UNK         0.0000 
     42 H42         3.2915   42.2721  -36.7764 H         1 UNK         0.0000 
     43 H43         4.8911   41.6355  -36.4338 H         1 UNK         0.0000 
@<TRIPOS>BOND
     1    1    2 1    
     2    1   24 1    
     3    1   25 1    
     4    1   26 1    
     5    2    3 1    
     6    3   12 ar   
     7    3    4 ar   
     8    4    5 ar   
     9    5    6 ar   
    10    5   18 1    
    11    6    7 ar   
    12    7   12 ar   
    13    7    8 ar   
    14    8    9 ar   
    15    8   27 1    
    16    9   10 ar   
    17    9   28 1    
    18   10   11 ar   
    19   10   13 1    
    20   11   12 ar   
    21   11   29 1    
    22   13   17 1    
    23   13   14 2    
    24   14   15 1    
    25   14   30 1    
    26   15   16 2    
    27   16   17 1    
    28   16   31 1    
    29   18   19 1    
    30   18   20 1    
    31   18   32 1    
    32   19   33 1    
    33   19   34 1    
    34   20   21 1    
    35   20   35 1    
    36   20   36 1    
    37   21   22 1    
    38   21   23 1    
    39   21   37 1    
    40   22   38 1    
    41   22   39 1    
    42   22   40 1    
    43   23   41 1    
    44   23   42 1    
    45   23   43 1    
@<TRIPOS>SUBSTRUCTURE
     1 UNK         1 GROUP             0       ****    0 ROOT    
