@<TRIPOS>MOLECULE
/home/yujie/leadopt/data/result/selection/AAK1/lig_(R)-31.sdf:1
44   46    1
SMALL
USER_CHARGES


@<TRIPOS>ATOM
      1 C1          1.8460   40.2826  -35.9062 C.3       1 UNK         0.0000 
      2 C2          3.3550   40.3983  -35.6284 C.3       1 UNK         0.0000 
      3 C3          4.0404   41.2603  -36.7036 C.3       1 UNK         0.0000 
      4 C4          4.0404   39.0121  -35.4991 C.3       1 UNK         0.0000 
      5 C5          3.4438   38.0605  -34.4288 C.3       1 UNK         0.0000 
      6 N6          4.2213   36.8326  -34.4059 N.3       1 UNK         0.0000 
      7 C7          3.3803   38.6780  -33.0317 C.ar      1 UNK         0.0000 
      8 N8          2.1354   38.8050  -32.5099 N.ar      1 UNK         0.0000 
      9 C9          1.9924   39.3991  -31.2959 C.ar      1 UNK         0.0000 
     10 C10         0.6876   39.5277  -30.7671 C.ar      1 UNK         0.0000 
     11 C11         0.4870   40.1605  -29.5442 C.ar      1 UNK         0.0000 
     12 C12         1.5556   40.6853  -28.8157 C.ar      1 UNK         0.0000 
     13 C13         2.8521   40.5562  -29.3186 C.ar      1 UNK         0.0000 
     14 C14         3.1078   39.9086  -30.5601 C.ar      1 UNK         0.0000 
     15 C15         4.4126   39.7387  -31.1275 C.ar      1 UNK         0.0000 
     16 C16         4.5293   39.1123  -32.3695 C.ar      1 UNK         0.0000 
     17 C17         5.6239   40.2137  -30.4627 C.1       1 UNK         0.0000 
     18 N18         6.5802   40.5947  -29.9341 N.1       1 UNK         0.0000 
     19 C19         1.3319   41.3643  -27.5157 C.ar      1 UNK         0.0000 
     20 C20         1.9289   42.6027  -27.2357 C.ar      1 UNK         0.0000 
     21 C21         1.7326   43.1844  -25.9831 C.ar      1 UNK         0.0000 
     22 N22         0.9827   42.6024  -25.0148 N.ar      1 UNK         0.0000 
     23 C23         0.4052   41.4083  -25.2924 C.ar      1 UNK         0.0000 
     24 C24         0.5471   40.7666  -26.5215 C.ar      1 UNK         0.0000 
     25 H25         2.4391   37.7690  -34.7426 H         1 UNK         0.0000 
     26 H26         1.6509   39.6530  -36.7734 H         1 UNK         0.0000 
     27 H27         1.3926   41.2571  -36.0916 H         1 UNK         0.0000 
     28 H28         1.3292   39.8459  -35.0531 H         1 UNK         0.0000 
     29 H29         3.4729   40.9260  -34.6800 H         1 UNK         0.0000 
     30 H30         3.9568   40.8068  -37.6918 H         1 UNK         0.0000 
     31 H31         3.5924   42.2530  -36.7593 H         1 UNK         0.0000 
     32 H32         5.1011   41.3968  -36.4901 H         1 UNK         0.0000 
     33 H33         3.9999   38.5162  -36.4706 H         1 UNK         0.0000 
     34 H34         5.1014   39.1664  -35.2927 H         1 UNK         0.0000 
     35 H35         3.6941   36.1371  -33.8892 H         1 UNK         0.0000 
     36 H36         4.3133   36.4656  -35.3415 H         1 UNK         0.0000 
     37 H37        -0.1532   39.1382  -31.3230 H         1 UNK         0.0000 
     38 H38        -0.5209   40.2555  -29.1648 H         1 UNK         0.0000 
     39 H39         3.6811   40.9453  -28.7449 H         1 UNK         0.0000 
     40 H40         5.4957   38.9701  -32.8338 H         1 UNK         0.0000 
     41 H41         2.5400   43.1016  -27.9741 H         1 UNK         0.0000 
     42 H42         2.1827   44.1358  -25.7380 H         1 UNK         0.0000 
     43 H43        -0.1916   40.9694  -24.5053 H         1 UNK         0.0000 
     44 H44         0.0958   39.8014  -26.6859 H         1 UNK         0.0000 
@<TRIPOS>BOND
     1    1    2 1    
     2    1   26 1    
     3    1   27 1    
     4    1   28 1    
     5    2    3 1    
     6    2    4 1    
     7    2   29 1    
     8    3   30 1    
     9    3   31 1    
    10    3   32 1    
    11    4    5 1    
    12    4   33 1    
    13    4   34 1    
    14    5   25 1    
    15    5    6 1    
    16    5    7 1    
    17    6   35 1    
    18    6   36 1    
    19    7   16 ar   
    20    7    8 ar   
    21    8    9 ar   
    22    9   14 ar   
    23    9   10 ar   
    24   10   11 ar   
    25   10   37 1    
    26   11   12 ar   
    27   11   38 1    
    28   12   13 ar   
    29   12   19 1    
    30   13   14 ar   
    31   13   39 1    
    32   14   15 ar   
    33   15   16 ar   
    34   15   17 1    
    35   16   40 1    
    36   17   18 3    
    37   19   24 ar   
    38   19   20 ar   
    39   20   21 ar   
    40   20   41 1    
    41   21   22 ar   
    42   21   42 1    
    43   22   23 ar   
    44   23   24 ar   
    45   23   43 1    
    46   24   44 1    
@<TRIPOS>SUBSTRUCTURE
     1 UNK         1 GROUP             0       ****    0 ROOT    
