@<TRIPOS>MOLECULE
/home/yujie/leadopt/data/result/selection/AAK1/lig_19.sdf:1
43   45    1
SMALL
USER_CHARGES


@<TRIPOS>ATOM
      1 C1         -1.7472   41.6458  -30.0019 C.3       1 UNK         0.0000 
      2 O2         -0.6704   41.4016  -29.1019 O.3       1 UNK         0.0000 
      3 C3          0.4917   40.8133  -29.5593 C.ar      1 UNK         0.0000 
      4 C4          1.6445   40.9653  -28.7740 C.ar      1 UNK         0.0000 
      5 C5          2.8747   40.4680  -29.2091 C.ar      1 UNK         0.0000 
      6 C6          2.9684   39.8083  -30.4551 C.ar      1 UNK         0.0000 
      7 C7          4.1716   39.3216  -31.0155 C.ar      1 UNK         0.0000 
      8 N8          4.2504   38.7624  -32.2459 N.ar      1 UNK         0.0000 
      9 C9          3.0771   38.6572  -32.9298 C.ar      1 UNK         0.0000 
     10 N10         1.8504   39.0341  -32.4769 N.ar      1 UNK         0.0000 
     11 C11         1.7987   39.6224  -31.2463 C.ar      1 UNK         0.0000 
     12 C12         0.5648   40.1173  -30.7740 C.ar      1 UNK         0.0000 
     13 C13         3.1119   38.1362  -34.3778 C.3       1 UNK         0.0000 
     14 N14         4.3285   37.4123  -34.7274 N.3       1 UNK         0.0000 
     15 C15         2.7951   39.2188  -35.4483 C.3       1 UNK         0.0000 
     16 C16         3.5558   40.5724  -35.3890 C.3       1 UNK         0.0000 
     17 C17         3.0129   41.5487  -36.4542 C.3       1 UNK         0.0000 
     18 C18         5.0828   40.4279  -35.5290 C.3       1 UNK         0.0000 
     19 C19         1.5949   41.6961  -27.4778 C.2       1 UNK         0.0000 
     20 C20         2.3533   42.6849  -26.8674 C.2       1 UNK         0.0000 
     21 N21         1.8628   43.0016  -25.6824 N.2       1 UNK         0.0000 
     22 C22         0.8316   42.2016  -25.5501 C.2       1 UNK         0.0000 
     23 O23         0.6063   41.3832  -26.6069 O.3       1 UNK         0.0000 
     24 H24         2.3100   37.4016  -34.4397 H         1 UNK         0.0000 
     25 H25        -2.5394   42.2016  -29.4987 H         1 UNK         0.0000 
     26 H26        -1.4704   42.2016  -30.8885 H         1 UNK         0.0000 
     27 H27        -2.1636   40.7137  -30.3740 H         1 UNK         0.0000 
     28 H28         3.7652   40.5968  -28.6102 H         1 UNK         0.0000 
     29 H29         5.0987   39.4133  -30.4681 H         1 UNK         0.0000 
     30 H30        -0.3033   39.9803  -31.3980 H         1 UNK         0.0000 
     31 H31         5.1039   38.0565  -34.7676 H         1 UNK         0.0000 
     32 H32         4.5282   36.7375  -34.0005 H         1 UNK         0.0000 
     33 H33         1.7296   39.4359  -35.3737 H         1 UNK         0.0000 
     34 H34         2.9155   38.7826  -36.4418 H         1 UNK         0.0000 
     35 H35         3.3587   41.0225  -34.4145 H         1 UNK         0.0000 
     36 H36         3.2219   41.1949  -37.4652 H         1 UNK         0.0000 
     37 H37         3.4626   42.5372  -36.3532 H         1 UNK         0.0000 
     38 H38         1.9331   41.6786  -36.3739 H         1 UNK         0.0000 
     39 H39         5.3501   39.8862  -36.4372 H         1 UNK         0.0000 
     40 H40         5.5709   41.4016  -35.5740 H         1 UNK         0.0000 
     41 H41         5.5152   39.9000  -34.6797 H         1 UNK         0.0000 
     42 H42         3.2258   43.1703  -27.2788 H         1 UNK         0.0000 
     43 H43         0.1296   42.1120  -24.7365 H         1 UNK         0.0000 
@<TRIPOS>BOND
     1    1    2 1    
     2    1   25 1    
     3    1   26 1    
     4    1   27 1    
     5    2    3 1    
     6    3   12 ar   
     7    3    4 ar   
     8    4    5 ar   
     9    4   19 1    
    10    5    6 ar   
    11    5   28 1    
    12    6   11 ar   
    13    6    7 ar   
    14    7    8 ar   
    15    7   29 1    
    16    8    9 ar   
    17    9   10 ar   
    18    9   13 1    
    19   10   11 ar   
    20   11   12 ar   
    21   12   30 1    
    22   13   24 1    
    23   13   14 1    
    24   13   15 1    
    25   14   31 1    
    26   14   32 1    
    27   15   16 1    
    28   15   33 1    
    29   15   34 1    
    30   16   17 1    
    31   16   18 1    
    32   16   35 1    
    33   17   36 1    
    34   17   37 1    
    35   17   38 1    
    36   18   39 1    
    37   18   40 1    
    38   18   41 1    
    39   19   23 1    
    40   19   20 2    
    41   20   21 1    
    42   20   42 1    
    43   21   22 2    
    44   22   23 1    
    45   22   43 1    
@<TRIPOS>SUBSTRUCTURE
     1 UNK         1 GROUP             0       ****    0 ROOT    
