@<TRIPOS>MOLECULE
/home/yujie/leadopt/data/result/selection/AAK1/lig_12.sdf:1
49   51    1
SMALL
USER_CHARGES


@<TRIPOS>ATOM
      1 C1          6.0563   39.9044  -29.0367 C.3       1 UNK         0.0000 
      2 C2          6.4743   40.5117  -30.3818 C.3       1 UNK         0.0000 
      3 C3          5.3515   41.2974  -31.0927 C.3       1 UNK         0.0000 
      4 C4          4.1749   40.4255  -31.5347 C.ar      1 UNK         0.0000 
      5 N5          4.3342   39.8294  -32.7431 N.ar      1 UNK         0.0000 
      6 C6          3.2951   39.0634  -33.1662 C.ar      1 UNK         0.0000 
      7 N7          2.1381   38.8254  -32.5030 N.ar      1 UNK         0.0000 
      8 C8          2.0039   39.4012  -31.2782 C.ar      1 UNK         0.0000 
      9 C9          0.8218   39.1520  -30.5506 C.ar      1 UNK         0.0000 
     10 C10         0.6364   39.7518  -29.3102 C.ar      1 UNK         0.0000 
     11 C11         1.5883   40.6094  -28.7633 C.ar      1 UNK         0.0000 
     12 C12         2.7773   40.8589  -29.4550 C.ar      1 UNK         0.0000 
     13 C13         3.0102   40.2565  -30.7230 C.ar      1 UNK         0.0000 
     14 C14         1.3287   41.2432  -27.4408 C.2       1 UNK         0.0000 
     15 C15         1.7423   42.4048  -26.7991 C.2       1 UNK         0.0000 
     16 N16         1.2440   42.4775  -25.5753 N.2       1 UNK         0.0000 
     17 C17         0.5295   41.3835  -25.4618 C.2       1 UNK         0.0000 
     18 O18         0.5294   40.5904  -26.5645 O.3       1 UNK         0.0000 
     19 C19         3.3971   38.4366  -34.5511 C.3       1 UNK         0.0000 
     20 N20         4.8188   37.9771  -34.8951 N.4       1 UNK         0.0000 
     21 C21         2.8380   39.3428  -35.6827 C.3       1 UNK         0.0000 
     22 C22         3.3942   40.7899  -35.8114 C.3       1 UNK         0.0000 
     23 C23         2.5219   41.6218  -36.7724 C.3       1 UNK         0.0000 
     24 C24         4.8721   40.8592  -36.2401 C.3       1 UNK         0.0000 
     25 H25         6.9050   39.4372  -28.5333 H         1 UNK         0.0000 
     26 H26         5.2901   39.1376  -29.1602 H         1 UNK         0.0000 
     27 H27         5.6617   40.6754  -28.3761 H         1 UNK         0.0000 
     28 H28         7.3185   41.1836  -30.2120 H         1 UNK         0.0000 
     29 H29         6.8505   39.7205  -31.0350 H         1 UNK         0.0000 
     30 H30         5.0090   42.1281  -30.4770 H         1 UNK         0.0000 
     31 H31         5.7724   41.7823  -31.9752 H         1 UNK         0.0000 
     32 H32         0.0687   38.4961  -30.9643 H         1 UNK         0.0000 
     33 H33        -0.2704   39.5556  -28.7728 H         1 UNK         0.0000 
     34 H34         3.5185   41.5087  -29.0176 H         1 UNK         0.0000 
     35 H35         2.3942   43.1668  -27.1985 H         1 UNK         0.0000 
     36 H36        -0.0215   41.0045  -24.6148 H         1 UNK         0.0000 
     37 H37         2.8598   37.4826  -34.5442 H         1 UNK         0.0000 
     38 H38         5.1345   37.3232  -34.1934 H         1 UNK         0.0000 
     39 H39         4.8472   37.5320  -35.7982 H         1 UNK         0.0000 
     40 H40         2.9288   38.8331  -36.6430 H         1 UNK         0.0000 
     41 H41         1.7611   39.4151  -35.5162 H         1 UNK         0.0000 
     42 H42         3.3276   41.2762  -34.8379 H         1 UNK         0.0000 
     43 H43         2.5317   41.2117  -37.7840 H         1 UNK         0.0000 
     44 H44         1.4838   41.6597  -36.4383 H         1 UNK         0.0000 
     45 H45         2.8724   42.6507  -36.8353 H         1 UNK         0.0000 
     46 H46         5.0462   40.3245  -37.1736 H         1 UNK         0.0000 
     47 H47         5.1860   41.8926  -36.3946 H         1 UNK         0.0000 
     48 H48         5.5349   40.4517  -35.4788 H         1 UNK         0.0000 
     49 H49         5.4356   38.7772  -34.8913 H         1 UNK         0.0000 
@<TRIPOS>BOND
     1    1    2 1    
     2    1   25 1    
     3    1   26 1    
     4    1   27 1    
     5    2    3 1    
     6    2   28 1    
     7    2   29 1    
     8    3    4 1    
     9    3   30 1    
    10    3   31 1    
    11    4   13 ar   
    12    4    5 ar   
    13    5    6 ar   
    14    6    7 ar   
    15    6   19 1    
    16    7    8 ar   
    17    8   13 ar   
    18    8    9 ar   
    19    9   10 ar   
    20    9   32 1    
    21   10   11 ar   
    22   10   33 1    
    23   11   12 ar   
    24   11   14 1    
    25   12   13 ar   
    26   12   34 1    
    27   14   18 1    
    28   14   15 2    
    29   15   16 1    
    30   15   35 1    
    31   16   17 2    
    32   17   18 1    
    33   17   36 1    
    34   19   20 1    
    35   19   21 1    
    36   19   37 1    
    37   20   38 1    
    38   20   39 1    
    39   20   49 1    
    40   21   22 1    
    41   21   40 1    
    42   21   41 1    
    43   22   23 1    
    44   22   24 1    
    45   22   42 1    
    46   23   43 1    
    47   23   44 1    
    48   23   45 1    
    49   24   46 1    
    50   24   47 1    
    51   24   48 1    
@<TRIPOS>SUBSTRUCTURE
     1 UNK         1 GROUP             0       ****    0 ROOT    
