/home/yujie/leadopt/data/result/selection/AAK1/lig_(R)-31.sdf:1
                    3D
 Schrodinger Suite 2020-3.
 44 46  0  0  1  0            999 V2000
    1.8460   40.2826  -35.9062 C   0  0  0  0  0  0
    3.3550   40.3983  -35.6284 C   0  0  0  0  0  0
    4.0404   41.2603  -36.7036 C   0  0  0  0  0  0
    4.0404   39.0121  -35.4991 C   0  0  0  0  0  0
    3.4438   38.0605  -34.4288 C   0  0  1  0  0  0
    4.2213   36.8326  -34.4059 N   0  0  0  0  0  0
    3.3803   38.6780  -33.0317 C   0  0  0  0  0  0
    2.1354   38.8050  -32.5099 N   0  0  0  0  0  0
    1.9924   39.3991  -31.2959 C   0  0  0  0  0  0
    0.6876   39.5277  -30.7671 C   0  0  0  0  0  0
    0.4870   40.1605  -29.5442 C   0  0  0  0  0  0
    1.5556   40.6853  -28.8157 C   0  0  0  0  0  0
    2.8521   40.5562  -29.3186 C   0  0  0  0  0  0
    3.1078   39.9086  -30.5601 C   0  0  0  0  0  0
    4.4126   39.7387  -31.1275 C   0  0  0  0  0  0
    4.5293   39.1123  -32.3695 C   0  0  0  0  0  0
    5.6239   40.2137  -30.4627 C   0  0  0  0  0  0
    6.5802   40.5947  -29.9341 N   0  0  0  0  0  0
    1.3319   41.3643  -27.5157 C   0  0  0  0  0  0
    1.9289   42.6027  -27.2357 C   0  0  0  0  0  0
    1.7326   43.1844  -25.9831 C   0  0  0  0  0  0
    0.9827   42.6024  -25.0148 N   0  0  0  0  0  0
    0.4052   41.4083  -25.2924 C   0  0  0  0  0  0
    0.5471   40.7666  -26.5215 C   0  0  0  0  0  0
    2.4391   37.7690  -34.7426 H   0  0  0  0  0  0
    1.6509   39.6530  -36.7734 H   0  0  0  0  0  0
    1.3926   41.2571  -36.0916 H   0  0  0  0  0  0
    1.3292   39.8459  -35.0531 H   0  0  0  0  0  0
    3.4729   40.9260  -34.6800 H   0  0  0  0  0  0
    3.9568   40.8068  -37.6918 H   0  0  0  0  0  0
    3.5924   42.2530  -36.7593 H   0  0  0  0  0  0
    5.1011   41.3968  -36.4901 H   0  0  0  0  0  0
    3.9999   38.5162  -36.4706 H   0  0  0  0  0  0
    5.1014   39.1664  -35.2927 H   0  0  0  0  0  0
    3.6941   36.1371  -33.8892 H   0  0  0  0  0  0
    4.3133   36.4656  -35.3415 H   0  0  0  0  0  0
   -0.1532   39.1382  -31.3230 H   0  0  0  0  0  0
   -0.5209   40.2555  -29.1648 H   0  0  0  0  0  0
    3.6811   40.9453  -28.7449 H   0  0  0  0  0  0
    5.4957   38.9701  -32.8338 H   0  0  0  0  0  0
    2.5400   43.1016  -27.9741 H   0  0  0  0  0  0
    2.1827   44.1358  -25.7380 H   0  0  0  0  0  0
   -0.1916   40.9694  -24.5053 H   0  0  0  0  0  0
    0.0958   39.8014  -26.6859 H   0  0  0  0  0  0
  1  2  1  0  0  0
  1 26  1  0  0  0
  1 27  1  0  0  0
  1 28  1  0  0  0
  2  3  1  0  0  0
  2  4  1  0  0  0
  2 29  1  0  0  0
  3 30  1  0  0  0
  3 31  1  0  0  0
  3 32  1  0  0  0
  4  5  1  0  0  0
  4 33  1  0  0  0
  4 34  1  0  0  0
  5 25  1  0  0  0
  5  6  1  0  0  0
  5  7  1  0  0  0
  6 35  1  0  0  0
  6 36  1  0  0  0
  7 16  1  0  0  0
  7  8  2  0  0  0
  8  9  1  0  0  0
  9 14  1  0  0  0
  9 10  2  0  0  0
 10 11  1  0  0  0
 10 37  1  0  0  0
 11 12  2  0  0  0
 11 38  1  0  0  0
 12 13  1  0  0  0
 12 19  1  0  0  0
 13 14  2  0  0  0
 13 39  1  0  0  0
 14 15  1  0  0  0
 15 16  2  0  0  0
 15 17  1  0  0  0
 16 40  1  0  0  0
 17 18  3  0  0  0
 19 24  1  0  0  0
 19 20  2  0  0  0
 20 21  1  0  0  0
 20 41  1  0  0  0
 21 22  2  0  0  0
 21 42  1  0  0  0
 22 23  1  0  0  0
 23 24  2  0  0  0
 23 43  1  0  0  0
 24 44  1  0  0  0
M  END
> <s_m_source_file>
/home/yujie/leadopt/data/result/selection/AAK1/lig_(R)-31.sdf

> <i_m_source_file_index>
1

> <i_lp_mmshare_version>
51139

> <i_f3d_flags>
0

> <s_epik_input>
W0NIM11bQ0hdKFtDSDNdKVtDSDJdW0NAQEhdKFtOSDJdKWMobjEpW2NIXWMoQyNOKWMoYzEyKVtjSF1jKFtjSF1bY0hdMiktYzNbY0hdW2NIXW5bY0hdW2NIXTM=

> <s_epik_cmdline>
J2VwaWtfcHl0aG9uJywgJy1waHQnLCAnMi4wJywgJy1waCcsICc3LjAnLCAnLXRuJywgJzgnLCAnLW1hJywgJzIwMCcsICctaW1hZScsICc8aW5maWxlLm1hZT4nLCAnLW9tYWUnLCAnPG91dGZpbGUubWFlPic=

> <r_epik_Ionization_Penalty>
  1.4551

> <r_epik_Ionization_Penalty_Charging>
  0.0000

> <r_epik_Ionization_Penalty_Neutral>
  1.4551

> <r_epik_State_Penalty>
  1.5139

> <r_epik_Charging_Adjusted_Penalty>
1.51394

> <i_epik_Tot_Q>
0

> <i_epik_Tot_abs_Q>
0

> <s_lp_Force_Field>
OPLS3e

> <r_lp_Energy>
36.5417

> <b_lp_Chiralities_Consistent>
1

> <s_lp_Variant>
/home/yujie/leadopt/data/result/selection/AAK1/lig_(R)-31.sdf:1-2

> <s_i_glide_gridfile>
glide-grid_AAK1

> <i_i_glide_lignum>
2

> <i_i_glide_rotatable_bonds>
4

> <r_i_docking_score>
-6.16064049363676

> <r_i_glide_ligand_efficiency>
-0.256693353901532

> <r_i_glide_ligand_efficiency_sa>
-0.740431757946125

> <r_i_glide_ligand_efficiency_ln>
-1.47452396349898

> <r_i_glide_gscore>
-7.67458049363676

> <r_i_glide_lipo>
-3.60581777506257

> <r_i_glide_hbond>
-0.252697423182281

> <r_i_glide_metal>
-0

> <r_i_glide_rewards>
-2.22345308565686

> <r_i_glide_evdw>
-40.5699882507324

> <r_i_glide_ecoul>
-0.813288033008575

> <r_i_glide_erotb>
0.557880407752864

> <r_i_glide_esite>
0

> <r_i_glide_emodel>
-60.6562052260084

> <r_i_glide_energy>
-41.383276283741

> <r_i_glide_einternal>
2.33815336227417

> <i_i_glide_confnum>
12

> <i_i_glide_posenum>
148

> <r_i_glide_eff_state_penalty>
1.51394

$$$$
