@<TRIPOS>MOLECULE
/home/yujie/leadopt/data/result/selection/AAK1/lig_21.sdf:1
49   51    1
SMALL
USER_CHARGES


@<TRIPOS>ATOM
      1 C1          6.4627   39.8054  -29.2329 C.3       1 UNK         0.0000 
      2 C2          5.9444   40.7626  -30.3103 C.3       1 UNK         0.0000 
      3 C3          4.6225   40.2732  -30.8908 C.ar      1 UNK         0.0000 
      4 N4          4.7213   39.5904  -32.0561 N.ar      1 UNK         0.0000 
      5 C5          3.5570   39.1148  -32.5667 C.ar      1 UNK         0.0000 
      6 N6          2.3178   39.2687  -32.0288 N.ar      1 UNK         0.0000 
      7 C7          2.2337   39.9729  -30.8618 C.ar      1 UNK         0.0000 
      8 C8          0.9596   40.2254  -30.3091 C.ar      1 UNK         0.0000 
      9 C9          0.8253   40.9900  -29.1424 C.ar      1 UNK         0.0000 
     10 O10        -0.4060   41.3123  -28.6174 O.3       1 UNK         0.0000 
     11 C11        -1.4700   41.6452  -29.5075 C.3       1 UNK         0.0000 
     12 C12         1.9686   41.4281  -28.4592 C.ar      1 UNK         0.0000 
     13 C13         3.2381   41.1981  -28.9925 C.ar      1 UNK         0.0000 
     14 C14         3.3898   40.5024  -30.2165 C.ar      1 UNK         0.0000 
     15 C15         1.8653   42.1624  -27.1624 C.2       1 UNK         0.0000 
     16 C16         0.9453   42.2015  -26.1237 C.2       1 UNK         0.0000 
     17 N17         1.3301   43.0296  -25.1739 N.2       1 UNK         0.0000 
     18 C18         2.4768   43.4956  -25.6050 C.2       1 UNK         0.0000 
     19 O19         2.8639   43.0120  -26.8129 O.3       1 UNK         0.0000 
     20 C20         3.6371   38.3572  -33.8962 C.3       1 UNK         0.0000 
     21 N21         4.5284   37.2091  -33.7863 N.3       1 UNK         0.0000 
     22 C22         4.1303   39.2326  -35.0809 C.3       1 UNK         0.0000 
     23 C23         3.3047   40.5130  -35.3726 C.3       1 UNK         0.0000 
     24 C24         1.8289   40.2016  -35.6805 C.3       1 UNK         0.0000 
     25 C25         3.9324   41.3407  -36.5104 C.3       1 UNK         0.0000 
     26 H26         7.4518   40.0944  -28.8778 H         1 UNK         0.0000 
     27 H27         5.7940   39.7613  -28.3742 H         1 UNK         0.0000 
     28 H28         6.5282   38.7991  -29.6423 H         1 UNK         0.0000 
     29 H29         6.6886   40.8378  -31.1057 H         1 UNK         0.0000 
     30 H30         5.8392   41.7754  -29.9183 H         1 UNK         0.0000 
     31 H31         0.0981   39.8342  -30.8276 H         1 UNK         0.0000 
     32 H32        -2.3591   41.8016  -28.9079 H         1 UNK         0.0000 
     33 H33        -1.3803   42.6016  -29.9740 H         1 UNK         0.0000 
     34 H34        -1.6841   40.8972  -30.2703 H         1 UNK         0.0000 
     35 H35         4.1123   41.5619  -28.4747 H         1 UNK         0.0000 
     36 H36         0.0214   41.6448  -26.0579 H         1 UNK         0.0000 
     37 H37         3.1445   44.2009  -25.1320 H         1 UNK         0.0000 
     38 H38         2.6535   37.9504  -34.1424 H         1 UNK         0.0000 
     39 H39         5.4737   37.5183  -33.6084 H         1 UNK         0.0000 
     40 H40         4.2517   36.6246  -33.0062 H         1 UNK         0.0000 
     41 H41         4.1445   38.6194  -35.9846 H         1 UNK         0.0000 
     42 H42         5.1684   39.5201  -34.9047 H         1 UNK         0.0000 
     43 H43         3.3295   41.1391  -34.4789 H         1 UNK         0.0000 
     44 H44         1.7351   39.4811  -36.4939 H         1 UNK         0.0000 
     45 H45         1.2802   41.0969  -35.9739 H         1 UNK         0.0000 
     46 H46         1.3300   39.7874  -34.8045 H         1 UNK         0.0000 
     47 H47         3.9328   40.7926  -37.4544 H         1 UNK         0.0000 
     48 H48         3.3860   42.2705  -36.6741 H         1 UNK         0.0000 
     49 H49         4.9653   41.6092  -36.2845 H         1 UNK         0.0000 
@<TRIPOS>BOND
     1    1    2 1    
     2    1   26 1    
     3    1   27 1    
     4    1   28 1    
     5    2    3 1    
     6    2   29 1    
     7    2   30 1    
     8    3   14 ar   
     9    3    4 ar   
    10    4    5 ar   
    11    5    6 ar   
    12    5   20 1    
    13    6    7 ar   
    14    7   14 ar   
    15    7    8 ar   
    16    8    9 ar   
    17    8   31 1    
    18    9   10 1    
    19    9   12 ar   
    20   10   11 1    
    21   11   32 1    
    22   11   33 1    
    23   11   34 1    
    24   12   13 ar   
    25   12   15 1    
    26   13   14 ar   
    27   13   35 1    
    28   15   19 1    
    29   15   16 2    
    30   16   17 1    
    31   16   36 1    
    32   17   18 2    
    33   18   19 1    
    34   18   37 1    
    35   20   21 1    
    36   20   22 1    
    37   20   38 1    
    38   21   39 1    
    39   21   40 1    
    40   22   23 1    
    41   22   41 1    
    42   22   42 1    
    43   23   24 1    
    44   23   25 1    
    45   23   43 1    
    46   24   44 1    
    47   24   45 1    
    48   24   46 1    
    49   25   47 1    
    50   25   48 1    
    51   25   49 1    
@<TRIPOS>SUBSTRUCTURE
     1 UNK         1 GROUP             0       ****    0 ROOT    
