@<TRIPOS>MOLECULE
/home/yujie/leadopt/data/result/selection/AAK1/lig_(R)-32.sdf:1
45   47    1
SMALL
USER_CHARGES


@<TRIPOS>ATOM
      1 C1          1.8954   40.0956  -35.5944 C.3       1 UNK         0.0000 
      2 C2          3.3537   40.4056  -35.2029 C.3       1 UNK         0.0000 
      3 C3          4.0124   41.3174  -36.2563 C.3       1 UNK         0.0000 
      4 C4          4.1950   39.1219  -34.9659 C.3       1 UNK         0.0000 
      5 C5          3.6789   38.1605  -33.8631 C.3       1 UNK         0.0000 
      6 N6          4.5296   36.9798  -33.8332 N.3       1 UNK         0.0000 
      7 C7          3.5888   38.8177  -32.4834 C.ar      1 UNK         0.0000 
      8 N8          2.3361   39.1385  -32.0774 N.ar      1 UNK         0.0000 
      9 C9          2.1775   39.8016  -30.9002 C.ar      1 UNK         0.0000 
     10 C10         0.8709   40.1982  -30.5359 C.ar      1 UNK         0.0000 
     11 C11         0.6380   40.9180  -29.3566 C.ar      1 UNK         0.0000 
     12 O12        -0.6056   41.4016  -29.0017 O.3       1 UNK         0.0000 
     13 C13        -1.6454   41.4713  -29.9740 C.3       1 UNK         0.0000 
     14 C14         1.7094   41.1900  -28.4975 C.ar      1 UNK         0.0000 
     15 C15         1.5206   41.8615  -27.1842 C.2       1 UNK         0.0000 
     16 C16         2.1296   42.9120  -26.5123 C.2       1 UNK         0.0000 
     17 N17         1.6400   43.0459  -25.2936 N.2       1 UNK         0.0000 
     18 C18         0.7493   42.0867  -25.2087 C.2       1 UNK         0.0000 
     19 O19         0.6145   41.3331  -26.3280 O.3       1 UNK         0.0000 
     20 C20         3.0106   40.8337  -28.8479 C.ar      1 UNK         0.0000 
     21 C21         3.2821   40.1483  -30.0640 C.ar      1 UNK         0.0000 
     22 C22         4.5926   39.7869  -30.5146 C.ar      1 UNK         0.0000 
     23 C23         5.7988   40.1269  -29.7663 C.1       1 UNK         0.0000 
     24 N24         6.7526   40.4033  -29.1740 N.1       1 UNK         0.0000 
     25 C25         4.7272   39.1218  -31.7345 C.ar      1 UNK         0.0000 
     26 H26         2.6896   37.7984  -34.1520 H         1 UNK         0.0000 
     27 H27         1.8475   39.4317  -36.4583 H         1 UNK         0.0000 
     28 H28         1.3456   41.0016  -35.8501 H         1 UNK         0.0000 
     29 H29         1.3587   39.6198  -34.7739 H         1 UNK         0.0000 
     30 H30         3.3296   40.9713  -34.2700 H         1 UNK         0.0000 
     31 H31         4.0542   40.8359  -37.2346 H         1 UNK         0.0000 
     32 H32         3.4598   42.2507  -36.3738 H         1 UNK         0.0000 
     33 H33         5.0320   41.5810  -35.9740 H         1 UNK         0.0000 
     34 H34         4.2528   38.5736  -35.9083 H         1 UNK         0.0000 
     35 H35         5.2208   39.4129  -34.7330 H         1 UNK         0.0000 
     36 H36         5.4941   37.2147  -33.6564 H         1 UNK         0.0000 
     37 H37         4.2290   36.3357  -33.1114 H         1 UNK         0.0000 
     38 H38         0.0660   39.9502  -31.2102 H         1 UNK         0.0000 
     39 H39        -2.5497   41.8444  -29.4968 H         1 UNK         0.0000 
     40 H40        -1.4704   42.1433  -30.8064 H         1 UNK         0.0000 
     41 H41        -1.8704   40.4856  -30.3740 H         1 UNK         0.0000 
     42 H42         2.9178   43.5459  -26.8908 H         1 UNK         0.0000 
     43 H43         0.1296   41.8015  -24.3740 H         1 UNK         0.0000 
     44 H44         3.8247   41.0759  -28.1799 H         1 UNK         0.0000 
     45 H45         5.7052   38.8554  -32.1103 H         1 UNK         0.0000 
@<TRIPOS>BOND
     1    1    2 1    
     2    1   27 1    
     3    1   28 1    
     4    1   29 1    
     5    2    3 1    
     6    2    4 1    
     7    2   30 1    
     8    3   31 1    
     9    3   32 1    
    10    3   33 1    
    11    4    5 1    
    12    4   34 1    
    13    4   35 1    
    14    5   26 1    
    15    5    6 1    
    16    5    7 1    
    17    6   36 1    
    18    6   37 1    
    19    7   25 ar   
    20    7    8 ar   
    21    8    9 ar   
    22    9   21 ar   
    23    9   10 ar   
    24   10   11 ar   
    25   10   38 1    
    26   11   12 1    
    27   11   14 ar   
    28   12   13 1    
    29   13   39 1    
    30   13   40 1    
    31   13   41 1    
    32   14   15 1    
    33   14   20 ar   
    34   15   19 1    
    35   15   16 2    
    36   16   17 1    
    37   16   42 1    
    38   17   18 2    
    39   18   19 1    
    40   18   43 1    
    41   20   21 ar   
    42   20   44 1    
    43   21   22 ar   
    44   22   23 1    
    45   22   25 ar   
    46   23   24 3    
    47   25   45 1    
@<TRIPOS>SUBSTRUCTURE
     1 UNK         1 GROUP             0       ****    0 ROOT    
