@<TRIPOS>MOLECULE
/home/yujie/leadopt/data/result/selection/AAK1/lig_18.sdf:1
40   42    1
SMALL
USER_CHARGES


@<TRIPOS>ATOM
      1 C1          2.4338   41.4452  -36.5861 C.3       1 UNK         0.0000 
      2 C2          3.4378   40.8502  -35.5783 C.3       1 UNK         0.0000 
      3 C3          4.8800   41.0808  -36.0699 C.3       1 UNK         0.0000 
      4 C4          3.1282   39.3579  -35.2841 C.3       1 UNK         0.0000 
      5 C5          3.9490   38.7190  -34.1344 C.3       1 UNK         0.0000 
      6 N6          3.7298   37.2807  -34.1294 N.3       1 UNK         0.0000 
      7 C7          3.6673   39.3388  -32.7606 C.ar      1 UNK         0.0000 
      8 N8          2.4694   39.0679  -32.1683 N.ar      1 UNK         0.0000 
      9 C9          2.2311   39.6528  -30.9568 C.ar      1 UNK         0.0000 
     10 C10         0.9968   39.4142  -30.3068 C.ar      1 UNK         0.0000 
     11 C11         0.7183   40.0199  -29.0814 C.ar      1 UNK         0.0000 
     12 C12         1.6428   40.8694  -28.4701 C.ar      1 UNK         0.0000 
     13 C13         2.8730   41.1100  -29.0857 C.ar      1 UNK         0.0000 
     14 C14         3.1900   40.5123  -30.3361 C.ar      1 UNK         0.0000 
     15 C15         4.4051   40.6992  -31.0600 C.ar      1 UNK         0.0000 
     16 N16         4.6504   40.1280  -32.2624 N.ar      1 UNK         0.0000 
     17 C17         5.4950   41.5353  -30.5703 C.1       1 UNK         0.0000 
     18 N18         6.3570   42.2013  -30.1792 N.1       1 UNK         0.0000 
     19 C19         1.3300   41.5237  -27.1663 C.2       1 UNK         0.0000 
     20 C20         0.3878   41.3422  -26.1620 C.2       1 UNK         0.0000 
     21 N21         0.5630   42.2014  -25.1742 N.2       1 UNK         0.0000 
     22 C22         1.5786   42.9309  -25.5707 C.2       1 UNK         0.0000 
     23 O23         2.0992   42.5683  -26.7691 O.3       1 UNK         0.0000 
     24 H24         2.5291   40.9822  -37.5697 H         1 UNK         0.0000 
     25 H25         2.5918   42.5171  -36.7159 H         1 UNK         0.0000 
     26 H26         1.4035   41.3110  -36.2551 H         1 UNK         0.0000 
     27 H27         3.3295   41.4013  -34.6442 H         1 UNK         0.0000 
     28 H28         5.0876   40.5139  -36.9786 H         1 UNK         0.0000 
     29 H29         5.0552   42.1340  -36.2953 H         1 UNK         0.0000 
     30 H30         5.6151   40.7916  -35.3190 H         1 UNK         0.0000 
     31 H31         2.0663   39.2473  -35.0589 H         1 UNK         0.0000 
     32 H32         3.2922   38.7900  -36.2020 H         1 UNK         0.0000 
     33 H33         5.0089   38.8426  -34.3620 H         1 UNK         0.0000 
     34 H34         4.2189   36.8464  -33.3584 H         1 UNK         0.0000 
     35 H35         2.7465   37.0450  -34.0155 H         1 UNK         0.0000 
     36 H36         0.2694   38.7650  -30.7736 H         1 UNK         0.0000 
     37 H37        -0.2362   39.8339  -28.6098 H         1 UNK         0.0000 
     38 H38         3.5940   41.7607  -28.6122 H         1 UNK         0.0000 
     39 H39        -0.3969   40.6016  -26.1385 H         1 UNK         0.0000 
     40 H40         2.0621   43.7606  -25.0759 H         1 UNK         0.0000 
@<TRIPOS>BOND
     1    1    2 1    
     2    1   24 1    
     3    1   25 1    
     4    1   26 1    
     5    2    3 1    
     6    2    4 1    
     7    2   27 1    
     8    3   28 1    
     9    3   29 1    
    10    3   30 1    
    11    4    5 1    
    12    4   31 1    
    13    4   32 1    
    14    5    6 1    
    15    5    7 1    
    16    5   33 1    
    17    6   34 1    
    18    6   35 1    
    19    7   16 ar   
    20    7    8 ar   
    21    8    9 ar   
    22    9   14 ar   
    23    9   10 ar   
    24   10   11 ar   
    25   10   36 1    
    26   11   12 ar   
    27   11   37 1    
    28   12   13 ar   
    29   12   19 1    
    30   13   14 ar   
    31   13   38 1    
    32   14   15 ar   
    33   15   16 ar   
    34   15   17 1    
    35   17   18 3    
    36   19   23 1    
    37   19   20 2    
    38   20   21 1    
    39   20   39 1    
    40   21   22 2    
    41   22   23 1    
    42   22   40 1    
@<TRIPOS>SUBSTRUCTURE
     1 UNK         1 GROUP             0       ****    0 ROOT    
