@<TRIPOS>MOLECULE
/home/yujie/leadopt/data/result/selection/AAK1/lig_7.sdf:1
44   45    1
SMALL
USER_CHARGES


@<TRIPOS>ATOM
      1 C1          4.5214   39.9326  -37.4594 C.3       1 UNK         0.0000 
      2 C2          3.6106   39.6156  -36.2510 C.3       1 UNK         0.0000 
      3 C3          3.0804   40.9032  -35.5783 C.3       1 UNK         0.0000 
      4 C4          4.3168   38.6540  -35.2607 C.3       1 UNK         0.0000 
      5 C5          3.3857   37.8341  -34.3284 C.3       1 UNK         0.0000 
      6 N6          4.1299   36.7314  -33.6179 N.4       1 UNK         0.0000 
      7 C7          2.5646   38.6093  -33.2712 C.2       1 UNK         0.0000 
      8 O8          1.3788   38.8414  -33.5120 O.2       1 UNK         0.0000 
      9 N9          3.2192   39.0124  -32.1601 N.am      1 UNK         0.0000 
     10 C10         2.6738   39.6288  -31.0247 C.ar      1 UNK         0.0000 
     11 C11         1.3829   39.3630  -30.5503 C.ar      1 UNK         0.0000 
     12 C12         0.9374   39.9592  -29.3728 C.ar      1 UNK         0.0000 
     13 C13         1.7682   40.8271  -28.6560 C.ar      1 UNK         0.0000 
     14 C14         1.2850   41.3966  -27.3637 C.2       1 UNK         0.0000 
     15 C15         1.5756   42.5240  -26.6051 C.2       1 UNK         0.0000 
     16 N16         0.9296   42.5106  -25.4562 N.2       1 UNK         0.0000 
     17 C17         0.2322   41.4020  -25.5082 C.2       1 UNK         0.0000 
     18 O18         0.3969   40.6738  -26.6394 O.3       1 UNK         0.0000 
     19 C19         3.0570   41.1182  -29.1347 C.ar      1 UNK         0.0000 
     20 O20         3.8228   42.0086  -28.4048 O.3       1 UNK         0.0000 
     21 C21         5.1679   42.2809  -28.7703 C.3       1 UNK         0.0000 
     22 F22         5.2227   43.0444  -29.8628 F         1 UNK         0.0000 
     23 F23         5.7271   42.9429  -27.7605 F         1 UNK         0.0000 
     24 C24         3.5009   40.5015  -30.3163 C.ar      1 UNK         0.0000 
     25 H25         2.7225   37.2657  -34.9854 H         1 UNK         0.0000 
     26 H26         5.5362   39.5569  -37.3263 H         1 UNK         0.0000 
     27 H27         4.6108   41.0002  -37.6552 H         1 UNK         0.0000 
     28 H28         4.1292   39.4764  -38.3700 H         1 UNK         0.0000 
     29 H29         2.7449   39.0884  -36.6548 H         1 UNK         0.0000 
     30 H30         3.4107   40.9976  -34.5446 H         1 UNK         0.0000 
     31 H31         3.3909   41.8173  -36.0841 H         1 UNK         0.0000 
     32 H32         1.9899   40.9059  -35.5735 H         1 UNK         0.0000 
     33 H33         4.8686   37.9300  -35.8640 H         1 UNK         0.0000 
     34 H34         5.0780   39.1907  -34.6912 H         1 UNK         0.0000 
     35 H35         3.6338   36.4637  -32.7776 H         1 UNK         0.0000 
     36 H36         4.1478   35.9247  -34.2278 H         1 UNK         0.0000 
     37 H37         4.2187   38.8912  -32.1347 H         1 UNK         0.0000 
     38 H38         0.7287   38.6776  -31.0697 H         1 UNK         0.0000 
     39 H39        -0.0562   39.7343  -29.0115 H         1 UNK         0.0000 
     40 H40         2.2602   43.3168  -26.8677 H         1 UNK         0.0000 
     41 H41        -0.4469   40.9982  -24.7749 H         1 UNK         0.0000 
     42 H42         5.7649   41.3794  -28.9194 H         1 UNK         0.0000 
     43 H43         4.4903   40.7020  -30.6982 H         1 UNK         0.0000 
     44 H44         5.0851   36.9939  -33.4238 H         1 UNK         0.0000 
@<TRIPOS>BOND
     1    1    2 1    
     2    1   26 1    
     3    1   27 1    
     4    1   28 1    
     5    2    3 1    
     6    2    4 1    
     7    2   29 1    
     8    3   30 1    
     9    3   31 1    
    10    3   32 1    
    11    4    5 1    
    12    4   33 1    
    13    4   34 1    
    14    5   25 1    
    15    5    6 1    
    16    5    7 1    
    17    6   35 1    
    18    6   36 1    
    19    6   44 1    
    20    7    8 2    
    21    7    9 am   BACKBONE|DICT|INTERRES
    22    9   10 1    
    23    9   37 1    
    24   10   24 ar   
    25   10   11 ar   
    26   11   12 ar   
    27   11   38 1    
    28   12   13 ar   
    29   12   39 1    
    30   13   14 1    
    31   13   19 ar   
    32   14   18 1    
    33   14   15 2    
    34   15   16 1    
    35   15   40 1    
    36   16   17 2    
    37   17   18 1    
    38   17   41 1    
    39   19   20 1    
    40   19   24 ar   
    41   20   21 1    
    42   21   22 1    
    43   21   23 1    
    44   21   42 1    
    45   24   43 1    
@<TRIPOS>SUBSTRUCTURE
     1 UNK         1 GROUP             0       ****    0 ROOT    
