@<TRIPOS>MOLECULE
/home/yujie/leadopt/data/result/selection/AAK1/lig_10.sdf:1
42   44    1
SMALL
USER_CHARGES


@<TRIPOS>ATOM
      1 C1          2.4335   41.5159  -36.6359 C.3       1 UNK         0.0000 
      2 C2          3.4375   40.9276  -35.6261 C.3       1 UNK         0.0000 
      3 C3          4.8789   41.1496  -36.1250 C.3       1 UNK         0.0000 
      4 C4          3.1244   39.4377  -35.3217 C.3       1 UNK         0.0000 
      5 C5          3.9577   38.7965  -34.1818 C.3       1 UNK         0.0000 
      6 N6          3.7296   37.3576  -34.1732 N.3       1 UNK         0.0000 
      7 C7          3.6979   39.4263  -32.8079 C.ar      1 UNK         0.0000 
      8 N8          2.5351   39.1106  -32.1693 N.ar      1 UNK         0.0000 
      9 C9          2.3117   39.7061  -30.9611 C.ar      1 UNK         0.0000 
     10 C10         1.1132   39.4237  -30.2643 C.ar      1 UNK         0.0000 
     11 C11         0.8518   40.0398  -29.0408 C.ar      1 UNK         0.0000 
     12 C12         1.7586   40.9406  -28.4784 C.ar      1 UNK         0.0000 
     13 C13         2.9544   41.2268  -29.1421 C.ar      1 UNK         0.0000 
     14 C14         3.2494   40.6201  -30.3896 C.ar      1 UNK         0.0000 
     15 C15         4.4236   40.8527  -31.1597 C.ar      1 UNK         0.0000 
     16 C16         5.5050   41.7994  -30.6612 C.3       1 UNK         0.0000 
     17 N17         4.6582   40.2728  -32.3602 N.ar      1 UNK         0.0000 
     18 C18         1.4575   41.5950  -27.1735 C.2       1 UNK         0.0000 
     19 C19         0.5293   41.4036  -26.1587 C.2       1 UNK         0.0000 
     20 N20         0.7129   42.2638  -25.1740 N.2       1 UNK         0.0000 
     21 C21         1.7226   42.9978  -25.5768 C.2       1 UNK         0.0000 
     22 O22         2.2292   42.6410  -26.7826 O.3       1 UNK         0.0000 
     23 H23         2.5296   41.0386  -37.6115 H         1 UNK         0.0000 
     24 H24         2.5936   42.5859  -36.7779 H         1 UNK         0.0000 
     25 H25         1.4028   41.3864  -36.3051 H         1 UNK         0.0000 
     26 H26         3.3303   41.4877  -34.6973 H         1 UNK         0.0000 
     27 H27         5.0851   40.5643  -37.0217 H         1 UNK         0.0000 
     28 H28         5.0538   42.1974  -36.3738 H         1 UNK         0.0000 
     29 H29         5.6145   40.8755  -35.3694 H         1 UNK         0.0000 
     30 H30         2.0649   39.3341  -35.0810 H         1 UNK         0.0000 
     31 H31         3.2714   38.8667  -36.2405 H         1 UNK         0.0000 
     32 H32         5.0155   38.9181  -34.4195 H         1 UNK         0.0000 
     33 H33         4.2177   36.9252  -33.4007 H         1 UNK         0.0000 
     34 H34         2.7452   37.1319  -34.0514 H         1 UNK         0.0000 
     35 H35         0.4015   38.7331  -30.6938 H         1 UNK         0.0000 
     36 H36        -0.0745   39.8180  -28.5315 H         1 UNK         0.0000 
     37 H37         3.6621   41.9185  -28.7099 H         1 UNK         0.0000 
     38 H38         5.9040   41.4481  -29.7087 H         1 UNK         0.0000 
     39 H39         6.3377   41.8774  -31.3624 H         1 UNK         0.0000 
     40 H40         5.0962   42.7991  -30.5128 H         1 UNK         0.0000 
     41 H41        -0.2493   40.6557  -26.1258 H         1 UNK         0.0000 
     42 H42         2.2083   43.8270  -25.0832 H         1 UNK         0.0000 
@<TRIPOS>BOND
     1    1    2 1    
     2    1   23 1    
     3    1   24 1    
     4    1   25 1    
     5    2    3 1    
     6    2    4 1    
     7    2   26 1    
     8    3   27 1    
     9    3   28 1    
    10    3   29 1    
    11    4    5 1    
    12    4   30 1    
    13    4   31 1    
    14    5    6 1    
    15    5    7 1    
    16    5   32 1    
    17    6   33 1    
    18    6   34 1    
    19    7   17 ar   
    20    7    8 ar   
    21    8    9 ar   
    22    9   14 ar   
    23    9   10 ar   
    24   10   11 ar   
    25   10   35 1    
    26   11   12 ar   
    27   11   36 1    
    28   12   13 ar   
    29   12   18 1    
    30   13   14 ar   
    31   13   37 1    
    32   14   15 ar   
    33   15   16 1    
    34   15   17 ar   
    35   16   38 1    
    36   16   39 1    
    37   16   40 1    
    38   18   22 1    
    39   18   19 2    
    40   19   20 1    
    41   19   41 1    
    42   20   21 2    
    43   21   22 1    
    44   21   42 1    
@<TRIPOS>SUBSTRUCTURE
     1 UNK         1 GROUP             0       ****    0 ROOT    
