@<TRIPOS>MOLECULE
/home/yujie/leadopt/data/result/selection/AAK1/lig_(S)-31.sdf:1
45   47    1
SMALL
USER_CHARGES


@<TRIPOS>ATOM
      1 C1          2.4690   41.5797  -36.7694 C.3       1 UNK         0.0000 
      2 C2          3.4188   40.7939  -35.8459 C.3       1 UNK         0.0000 
      3 C3          4.8775   40.9699  -36.3049 C.3       1 UNK         0.0000 
      4 C4          2.9985   39.3040  -35.7350 C.3       1 UNK         0.0000 
      5 C5          3.7734   38.4717  -34.6786 C.3       1 UNK         0.0000 
      6 N6          3.3292   37.0017  -34.7744 N.4       1 UNK         0.0000 
      7 C7          3.6471   39.0213  -33.2598 C.ar      1 UNK         0.0000 
      8 N8          2.4087   38.9776  -32.7070 N.ar      1 UNK         0.0000 
      9 C9          2.2274   39.4943  -31.4626 C.ar      1 UNK         0.0000 
     10 C10         0.9277   39.4565  -30.9067 C.ar      1 UNK         0.0000 
     11 C11         0.6765   40.0502  -29.6728 C.ar      1 UNK         0.0000 
     12 C12         1.6919   40.6807  -28.9482 C.ar      1 UNK         0.0000 
     13 C13         2.9905   40.6822  -29.4649 C.ar      1 UNK         0.0000 
     14 C14         3.2922   40.1072  -30.7312 C.ar      1 UNK         0.0000 
     15 C15         4.5932   40.1200  -31.3342 C.ar      1 UNK         0.0000 
     16 C16         4.7500   39.5684  -32.6069 C.ar      1 UNK         0.0000 
     17 C17         5.7564   40.7168  -30.6787 C.1       1 UNK         0.0000 
     18 N18         6.6753   41.1914  -30.1578 N.1       1 UNK         0.0000 
     19 C19         1.4096   41.3538  -27.6518 C.ar      1 UNK         0.0000 
     20 C20         1.9865   42.5962  -27.3445 C.ar      1 UNK         0.0000 
     21 C21         1.7293   43.1801  -26.1038 C.ar      1 UNK         0.0000 
     22 N22         0.9304   42.6014  -25.1733 N.ar      1 UNK         0.0000 
     23 C23         0.3680   41.4065  -25.4774 C.ar      1 UNK         0.0000 
     24 C24         0.5780   40.7588  -26.6943 C.ar      1 UNK         0.0000 
     25 H25         4.8260   38.3994  -34.9619 H         1 UNK         0.0000 
     26 H26         2.5298   41.2287  -37.7997 H         1 UNK         0.0000 
     27 H27         2.7133   42.6423  -36.7733 H         1 UNK         0.0000 
     28 H28         1.4318   41.4928  -36.4464 H         1 UNK         0.0000 
     29 H29         3.3335   41.2439  -34.8563 H         1 UNK         0.0000 
     30 H30         5.0424   40.5300  -37.2881 H         1 UNK         0.0000 
     31 H31         5.1426   42.0246  -36.3745 H         1 UNK         0.0000 
     32 H32         5.5827   40.5122  -35.6110 H         1 UNK         0.0000 
     33 H33         1.9327   39.2592  -35.5045 H         1 UNK         0.0000 
     34 H34         3.1095   38.8446  -36.7190 H         1 UNK         0.0000 
     35 H35         3.9553   36.4148  -34.2397 H         1 UNK         0.0000 
     36 H36         2.4004   36.8524  -34.3784 H         1 UNK         0.0000 
     37 H37         0.1252   38.9883  -31.4598 H         1 UNK         0.0000 
     38 H38        -0.3328   40.0409  -29.2850 H         1 UNK         0.0000 
     39 H39         3.7847   41.1481  -28.8987 H         1 UNK         0.0000 
     40 H40         5.7161   39.5794  -33.0918 H         1 UNK         0.0000 
     41 H41         2.6270   43.1019  -28.0518 H         1 UNK         0.0000 
     42 H42         2.1597   44.1361  -25.8412 H         1 UNK         0.0000 
     43 H43        -0.2676   40.9716  -24.7211 H         1 UNK         0.0000 
     44 H44         0.1295   39.7976  -26.8790 H         1 UNK         0.0000 
     45 H45         3.3279   36.6745  -35.7291 H         1 UNK         0.0000 
@<TRIPOS>BOND
     1    1    2 1    
     2    1   26 1    
     3    1   27 1    
     4    1   28 1    
     5    2    3 1    
     6    2    4 1    
     7    2   29 1    
     8    3   30 1    
     9    3   31 1    
    10    3   32 1    
    11    4    5 1    
    12    4   33 1    
    13    4   34 1    
    14    5   25 1    
    15    5    6 1    
    16    5    7 1    
    17    6   35 1    
    18    6   36 1    
    19    6   45 1    
    20    7   16 ar   
    21    7    8 ar   
    22    8    9 ar   
    23    9   14 ar   
    24    9   10 ar   
    25   10   11 ar   
    26   10   37 1    
    27   11   12 ar   
    28   11   38 1    
    29   12   13 ar   
    30   12   19 1    
    31   13   14 ar   
    32   13   39 1    
    33   14   15 ar   
    34   15   16 ar   
    35   15   17 1    
    36   16   40 1    
    37   17   18 3    
    38   19   24 ar   
    39   19   20 ar   
    40   20   21 ar   
    41   20   41 1    
    42   21   22 ar   
    43   21   42 1    
    44   22   23 ar   
    45   23   24 ar   
    46   23   43 1    
    47   24   44 1    
@<TRIPOS>SUBSTRUCTURE
     1 UNK         1 GROUP             0       ****    0 ROOT    
