@<TRIPOS>MOLECULE
/home/yujie/leadopt/data/result/selection/AAK1/lig_9.sdf:1
39   41    1
SMALL
USER_CHARGES


@<TRIPOS>ATOM
      1 C1          1.8552   40.3973  -35.9071 C.3       1 UNK         0.0000 
      2 C2          3.3320   40.5656  -35.5080 C.3       1 UNK         0.0000 
      3 C3          4.0939   41.3788  -36.5725 C.3       1 UNK         0.0000 
      4 C4          4.0283   39.2085  -35.2194 C.3       1 UNK         0.0000 
      5 C5          3.3666   38.3220  -34.1273 C.3       1 UNK         0.0000 
      6 N6          4.1293   37.0881  -34.0013 N.3       1 UNK         0.0000 
      7 C7          3.2134   38.9994  -32.7613 C.ar      1 UNK         0.0000 
      8 N8          1.9676   38.9754  -32.2109 N.ar      1 UNK         0.0000 
      9 C9          1.8187   39.5739  -30.9923 C.ar      1 UNK         0.0000 
     10 C10         0.5505   39.5793  -30.3666 C.ar      1 UNK         0.0000 
     11 C11         0.3865   40.2027  -29.1295 C.ar      1 UNK         0.0000 
     12 C12         1.4556   40.8393  -28.4962 C.ar      1 UNK         0.0000 
     13 C13         2.7184   40.8437  -29.0872 C.ar      1 UNK         0.0000 
     14 C14         2.9160   40.2092  -30.3356 C.ar      1 UNK         0.0000 
     15 C15         4.1544   40.1576  -31.0145 C.ar      1 UNK         0.0000 
     16 N16         4.3253   39.5616  -32.2169 N.ar      1 UNK         0.0000 
     17 C17         1.2655   41.5015  -27.1804 C.2       1 UNK         0.0000 
     18 C18         1.7990   42.6163  -26.5501 C.2       1 UNK         0.0000 
     19 N19         1.3310   42.7375  -25.3213 N.2       1 UNK         0.0000 
     20 C20         0.5272   41.7102  -25.1894 C.2       1 UNK         0.0000 
     21 O21         0.4217   40.9265  -26.2920 O.3       1 UNK         0.0000 
     22 H22         2.3808   38.0168  -34.4799 H         1 UNK         0.0000 
     23 H23         1.7426   39.7438  -36.7731 H         1 UNK         0.0000 
     24 H24         1.3937   41.3550  -36.1513 H         1 UNK         0.0000 
     25 H25         1.2862   39.9701  -35.0830 H         1 UNK         0.0000 
     26 H26         3.3540   41.1538  -34.5894 H         1 UNK         0.0000 
     27 H27         4.1232   40.8623  -37.5329 H         1 UNK         0.0000 
     28 H28         3.6240   42.3488  -36.7392 H         1 UNK         0.0000 
     29 H29         5.1231   41.5695  -36.2677 H         1 UNK         0.0000 
     30 H30         4.0780   38.6405  -36.1504 H         1 UNK         0.0000 
     31 H31         5.0664   39.4000  -34.9396 H         1 UNK         0.0000 
     32 H32         4.3863   36.9671  -33.0303 H         1 UNK         0.0000 
     33 H33         3.4970   36.3162  -34.1828 H         1 UNK         0.0000 
     34 H34        -0.2877   39.0997  -30.8522 H         1 UNK         0.0000 
     35 H35        -0.5883   40.2038  -28.6631 H         1 UNK         0.0000 
     36 H36         3.5553   41.3181  -28.5975 H         1 UNK         0.0000 
     37 H37         5.0276   40.6117  -30.5736 H         1 UNK         0.0000 
     38 H38         2.5109   43.3146  -26.9674 H         1 UNK         0.0000 
     39 H39        -0.0765   41.4156  -24.3434 H         1 UNK         0.0000 
@<TRIPOS>BOND
     1    1    2 1    
     2    1   23 1    
     3    1   24 1    
     4    1   25 1    
     5    2    3 1    
     6    2    4 1    
     7    2   26 1    
     8    3   27 1    
     9    3   28 1    
    10    3   29 1    
    11    4    5 1    
    12    4   30 1    
    13    4   31 1    
    14    5   22 1    
    15    5    6 1    
    16    5    7 1    
    17    6   32 1    
    18    6   33 1    
    19    7   16 ar   
    20    7    8 ar   
    21    8    9 ar   
    22    9   14 ar   
    23    9   10 ar   
    24   10   11 ar   
    25   10   34 1    
    26   11   12 ar   
    27   11   35 1    
    28   12   13 ar   
    29   12   17 1    
    30   13   14 ar   
    31   13   36 1    
    32   14   15 ar   
    33   15   16 ar   
    34   15   37 1    
    35   17   21 1    
    36   17   18 2    
    37   18   19 1    
    38   18   38 1    
    39   19   20 2    
    40   20   21 1    
    41   20   39 1    
@<TRIPOS>SUBSTRUCTURE
     1 UNK         1 GROUP             0       ****    0 ROOT    
