@<TRIPOS>MOLECULE
/home/yujie/leadopt/data/result/selection/AAK1/lig_16.sdf:1
47   49    1
SMALL
USER_CHARGES


@<TRIPOS>ATOM
      1 C1          7.4810   39.8026  -30.7807 C.3       1 UNK         0.0000 
      2 C2          6.6299   40.9609  -31.3153 C.3       1 UNK         0.0000 
      3 N3          5.3201   41.0313  -30.6722 N.pl3     1 UNK         0.0000 
      4 C4          4.1855   40.3600  -31.1718 C.ar      1 UNK         0.0000 
      5 N5          4.2811   39.7576  -32.3849 N.ar      1 UNK         0.0000 
      6 C6          3.1804   39.1084  -32.8425 C.ar      1 UNK         0.0000 
      7 N7          1.9907   39.0016  -32.1992 N.ar      1 UNK         0.0000 
      8 C8          1.8925   39.6025  -30.9810 C.ar      1 UNK         0.0000 
      9 C9          0.6702   39.5132  -30.2782 C.ar      1 UNK         0.0000 
     10 C10         0.5264   40.1426  -29.0445 C.ar      1 UNK         0.0000 
     11 C11         1.5703   40.8748  -28.4816 C.ar      1 UNK         0.0000 
     12 C12         2.7927   40.9679  -29.1494 C.ar      1 UNK         0.0000 
     13 C13         2.9804   40.3303  -30.4072 C.ar      1 UNK         0.0000 
     14 C14         1.3689   41.5569  -27.1749 C.2       1 UNK         0.0000 
     15 C15         0.4945   41.4049  -26.1091 C.2       1 UNK         0.0000 
     16 N16         0.7363   42.2925  -25.1641 N.2       1 UNK         0.0000 
     17 C17         1.7317   43.0006  -25.6395 C.2       1 UNK         0.0000 
     18 O18         2.1755   42.6002  -26.8572 O.3       1 UNK         0.0000 
     19 C19         3.2533   38.4560  -34.2317 C.3       1 UNK         0.0000 
     20 N20         4.5535   37.8651  -34.5259 N.3       1 UNK         0.0000 
     21 C21         2.7991   39.3946  -35.3836 C.3       1 UNK         0.0000 
     22 C22         3.4524   40.8003  -35.5181 C.3       1 UNK         0.0000 
     23 C23         2.7185   41.6364  -36.5862 C.3       1 UNK         0.0000 
     24 C24         4.9623   40.7608  -35.8224 C.3       1 UNK         0.0000 
     25 H25         8.4537   39.7748  -31.2717 H         1 UNK         0.0000 
     26 H26         6.9969   38.8408  -30.9556 H         1 UNK         0.0000 
     27 H27         7.6574   39.8971  -29.7085 H         1 UNK         0.0000 
     28 H28         7.1401   41.9111  -31.1527 H         1 UNK         0.0000 
     29 H29         6.5284   40.8759  -32.3983 H         1 UNK         0.0000 
     30 H30         5.3064   41.2960  -29.6989 H         1 UNK         0.0000 
     31 H31        -0.1518   38.9612  -30.7114 H         1 UNK         0.0000 
     32 H32        -0.4215   40.0771  -28.5311 H         1 UNK         0.0000 
     33 H33         3.6029   41.5301  -28.7092 H         1 UNK         0.0000 
     34 H34        -0.2916   40.6705  -26.0165 H         1 UNK         0.0000 
     35 H35         2.2503   43.8377  -25.1954 H         1 UNK         0.0000 
     36 H36         2.5555   37.6157  -34.2148 H         1 UNK         0.0000 
     37 H37         5.2361   38.6011  -34.6324 H         1 UNK         0.0000 
     38 H38         4.8441   37.2905  -33.7451 H         1 UNK         0.0000 
     39 H39         2.8964   38.8620  -36.3314 H         1 UNK         0.0000 
     40 H40         1.7261   39.5391  -35.2603 H         1 UNK         0.0000 
     41 H41         3.3301   41.3243  -34.5694 H         1 UNK         0.0000 
     42 H42         2.8214   41.1953  -37.5781 H         1 UNK         0.0000 
     43 H43         1.6517   41.7195  -36.3740 H         1 UNK         0.0000 
     44 H44         3.1148   42.6505  -36.6377 H         1 UNK         0.0000 
     45 H45         5.1762   40.1559  -36.7043 H         1 UNK         0.0000 
     46 H46         5.3538   41.7618  -36.0089 H         1 UNK         0.0000 
     47 H47         5.5316   40.3559  -34.9863 H         1 UNK         0.0000 
@<TRIPOS>BOND
     1    1    2 1    
     2    1   25 1    
     3    1   26 1    
     4    1   27 1    
     5    2    3 1    
     6    2   28 1    
     7    2   29 1    
     8    3    4 1    
     9    3   30 1    
    10    4   13 ar   
    11    4    5 ar   
    12    5    6 ar   
    13    6    7 ar   
    14    6   19 1    
    15    7    8 ar   
    16    8   13 ar   
    17    8    9 ar   
    18    9   10 ar   
    19    9   31 1    
    20   10   11 ar   
    21   10   32 1    
    22   11   12 ar   
    23   11   14 1    
    24   12   13 ar   
    25   12   33 1    
    26   14   18 1    
    27   14   15 2    
    28   15   16 1    
    29   15   34 1    
    30   16   17 2    
    31   17   18 1    
    32   17   35 1    
    33   19   20 1    
    34   19   21 1    
    35   19   36 1    
    36   20   37 1    
    37   20   38 1    
    38   21   22 1    
    39   21   39 1    
    40   21   40 1    
    41   22   23 1    
    42   22   24 1    
    43   22   41 1    
    44   23   42 1    
    45   23   43 1    
    46   23   44 1    
    47   24   45 1    
    48   24   46 1    
    49   24   47 1    
@<TRIPOS>SUBSTRUCTURE
     1 UNK         1 GROUP             0       ****    0 ROOT    
