@<TRIPOS>MOLECULE
/home/yujie/leadopt/data/result/selection/AAK1/lig_22.sdf:1
44   46    1
SMALL
USER_CHARGES


@<TRIPOS>ATOM
      1 C1         -1.6235   41.4539  -29.9740 C.3       1 UNK         0.0000 
      2 O2         -0.5739   41.4016  -29.0095 O.3       1 UNK         0.0000 
      3 C3          0.6702   40.9160  -29.3616 C.ar      1 UNK         0.0000 
      4 C4          1.7389   41.1768  -28.4917 C.ar      1 UNK         0.0000 
      5 C5          3.0384   40.7977  -28.8274 C.ar      1 UNK         0.0000 
      6 C6          3.3015   40.1120  -30.0396 C.ar      1 UNK         0.0000 
      7 C7          2.2089   39.7896  -30.8980 C.ar      1 UNK         0.0000 
      8 C8          0.9041   40.2016  -30.5456 C.ar      1 UNK         0.0000 
      9 N9          2.3907   39.1185  -32.0713 N.ar      1 UNK         0.0000 
     10 C10         3.6661   38.7863  -32.4016 C.ar      1 UNK         0.0000 
     11 N11         4.7822   39.0518  -31.6728 N.ar      1 UNK         0.0000 
     12 C12         4.5871   39.7020  -30.5018 C.ar      1 UNK         0.0000 
     13 C13         5.8131   39.9793  -29.7630 C.1       1 UNK         0.0000 
     14 N14         6.7826   40.2066  -29.1740 N.1       1 UNK         0.0000 
     15 C15         3.8503   38.1022  -33.7610 C.3       1 UNK         0.0000 
     16 N16         4.7430   36.9540  -33.6649 N.3       1 UNK         0.0000 
     17 C17         4.4052   39.0558  -34.8526 C.3       1 UNK         0.0000 
     18 C18         3.5688   40.3317  -35.1417 C.3       1 UNK         0.0000 
     19 C19         2.1275   40.0114  -35.5822 C.3       1 UNK         0.0000 
     20 C20         4.2627   41.2265  -36.1868 C.3       1 UNK         0.0000 
     21 C21         1.5490   41.8613  -27.1830 C.2       1 UNK         0.0000 
     22 C22         0.6078   41.8015  -26.1672 C.2       1 UNK         0.0000 
     23 N23         0.9296   42.6076  -25.1740 N.2       1 UNK         0.0000 
     24 C24         2.0394   43.1797  -25.5740 C.2       1 UNK         0.0000 
     25 O25         2.4807   42.7640  -26.7873 O.3       1 UNK         0.0000 
     26 H26        -2.5245   41.8207  -29.4860 H         1 UNK         0.0000 
     27 H27        -1.4704   42.1302  -30.8073 H         1 UNK         0.0000 
     28 H28        -1.8501   40.4677  -30.3741 H         1 UNK         0.0000 
     29 H29         3.8545   41.0224  -28.1555 H         1 UNK         0.0000 
     30 H30         0.1034   39.9660  -31.2290 H         1 UNK         0.0000 
     31 H31         2.8904   37.7027  -34.0948 H         1 UNK         0.0000 
     32 H32         5.6637   37.2510  -33.3761 H         1 UNK         0.0000 
     33 H33         4.4105   36.3038  -32.9631 H         1 UNK         0.0000 
     34 H34         4.5090   38.4967  -35.7846 H         1 UNK         0.0000 
     35 H35         5.4171   39.3587  -34.5770 H         1 UNK         0.0000 
     36 H36         3.5093   40.9122  -34.2193 H         1 UNK         0.0000 
     37 H37         2.1136   39.3671  -36.4621 H         1 UNK         0.0000 
     38 H38         1.5755   40.9184  -35.8317 H         1 UNK         0.0000 
     39 H39         1.5735   39.5088  -34.7900 H         1 UNK         0.0000 
     40 H40         4.3163   40.7379  -37.1609 H         1 UNK         0.0000 
     41 H41         3.7286   42.1684  -36.3209 H         1 UNK         0.0000 
     42 H42         5.2816   41.4731  -35.8874 H         1 UNK         0.0000 
     43 H43        -0.2768   41.1818  -26.1454 H         1 UNK         0.0000 
     44 H44         2.6508   43.9133  -25.0685 H         1 UNK         0.0000 
@<TRIPOS>BOND
     1    1    2 1    
     2    1   26 1    
     3    1   27 1    
     4    1   28 1    
     5    2    3 1    
     6    3    8 ar   
     7    3    4 ar   
     8    4    5 ar   
     9    4   21 1    
    10    5    6 ar   
    11    5   29 1    
    12    6   12 ar   
    13    6    7 ar   
    14    7    8 ar   
    15    7    9 ar   
    16    8   30 1    
    17    9   10 ar   
    18   10   11 ar   
    19   10   15 1    
    20   11   12 ar   
    21   12   13 1    
    22   13   14 3    
    23   15   16 1    
    24   15   17 1    
    25   15   31 1    
    26   16   32 1    
    27   16   33 1    
    28   17   18 1    
    29   17   34 1    
    30   17   35 1    
    31   18   19 1    
    32   18   20 1    
    33   18   36 1    
    34   19   37 1    
    35   19   38 1    
    36   19   39 1    
    37   20   40 1    
    38   20   41 1    
    39   20   42 1    
    40   21   25 1    
    41   21   22 2    
    42   22   23 1    
    43   22   43 1    
    44   23   24 2    
    45   24   25 1    
    46   24   44 1    
@<TRIPOS>SUBSTRUCTURE
     1 UNK         1 GROUP             0       ****    0 ROOT    
