@<TRIPOS>MOLECULE
/home/yujie/leadopt/data/result/selection/AAK1/lig_25.sdf:1
52   54    1
SMALL
USER_CHARGES


@<TRIPOS>ATOM
      1 C1          5.7537   39.0514  -28.9962 C.3       1 UNK         0.0000 
      2 C2          5.6218   39.9214  -30.2557 C.3       1 UNK         0.0000 
      3 C3          4.3069   39.6897  -30.9917 C.ar      1 UNK         0.0000 
      4 N4          4.4002   39.0691  -32.1924 N.ar      1 UNK         0.0000 
      5 C5          3.2262   38.8333  -32.8369 C.ar      1 UNK         0.0000 
      6 N6          1.9842   39.1422  -32.3762 N.ar      1 UNK         0.0000 
      7 C7          1.9090   39.7856  -31.1756 C.ar      1 UNK         0.0000 
      8 C8          0.6454   40.1906  -30.7015 C.ar      1 UNK         0.0000 
      9 C9          0.5310   40.9088  -29.5042 C.ar      1 UNK         0.0000 
     10 O10        -0.6705   41.4016  -29.0494 O.3       1 UNK         0.0000 
     11 C11        -1.7352   41.6157  -29.9739 C.3       1 UNK         0.0000 
     12 C12         1.6691   41.1806  -28.7306 C.ar      1 UNK         0.0000 
     13 C13         2.9267   40.8018  -29.1979 C.ar      1 UNK         0.0000 
     14 C14         3.0726   40.1064  -30.4205 C.ar      1 UNK         0.0000 
     15 C15         1.5796   41.8778  -27.4202 C.ar      1 UNK         0.0000 
     16 C16         2.3728   43.0011  -27.1455 C.ar      1 UNK         0.0000 
     17 C17         2.2968   43.5952  -25.8852 C.ar      1 UNK         0.0000 
     18 N18         1.4881   43.1296  -24.9025 N.ar      1 UNK         0.0000 
     19 C19         0.7223   42.0444  -25.1740 C.ar      1 UNK         0.0000 
     20 C20         0.7322   41.4012  -26.4108 C.ar      1 UNK         0.0000 
     21 C21         3.2646   38.1933  -34.2350 C.3       1 UNK         0.0000 
     22 N22         4.5156   37.5158  -34.5623 N.3       1 UNK         0.0000 
     23 C23         2.8328   39.1550  -35.3798 C.3       1 UNK         0.0000 
     24 C24         3.5213   40.5458  -35.4698 C.3       1 UNK         0.0000 
     25 C25         2.8508   41.4244  -36.5469 C.3       1 UNK         0.0000 
     26 C26         5.0385   40.4635  -35.7213 C.3       1 UNK         0.0000 
     27 H27         6.6895   39.2661  -28.4815 H         1 UNK         0.0000 
     28 H28         4.9582   39.2277  -28.2762 H         1 UNK         0.0000 
     29 H29         5.7296   37.9911  -29.2500 H         1 UNK         0.0000 
     30 H30         6.4645   39.7124  -30.9180 H         1 UNK         0.0000 
     31 H31         5.7055   40.9778  -29.9988 H         1 UNK         0.0000 
     32 H32        -0.2186   39.9560  -31.3033 H         1 UNK         0.0000 
     33 H33        -2.5621   42.1298  -29.4823 H         1 UNK         0.0000 
     34 H34        -1.4704   42.2016  -30.8440 H         1 UNK         0.0000 
     35 H35        -2.0981   40.6720  -30.3740 H         1 UNK         0.0000 
     36 H36         3.8013   41.0495  -28.6163 H         1 UNK         0.0000 
     37 H37         3.0382   43.4048  -27.8948 H         1 UNK         0.0000 
     38 H38         2.8973   44.4600  -25.6429 H         1 UNK         0.0000 
     39 H39         0.0962   41.6826  -24.3729 H         1 UNK         0.0000 
     40 H40         0.1068   40.5362  -26.5775 H         1 UNK         0.0000 
     41 H41         2.5188   37.4017  -34.1982 H         1 UNK         0.0000 
     42 H42         4.6902   36.8091  -33.8596 H         1 UNK         0.0000 
     43 H43         4.4163   37.0289  -35.4405 H         1 UNK         0.0000 
     44 H44         1.7599   39.3195  -35.2691 H         1 UNK         0.0000 
     45 H45         2.9329   38.6434  -36.3383 H         1 UNK         0.0000 
     46 H46         3.3775   41.0518  -34.5138 H         1 UNK         0.0000 
     47 H47         2.9810   41.0041  -37.5455 H         1 UNK         0.0000 
     48 H48         3.2741   42.4302  -36.5576 H         1 UNK         0.0000 
     49 H49         1.7791   41.5291  -36.3741 H         1 UNK         0.0000 
     50 H50         5.2623   39.8892  -36.6205 H         1 UNK         0.0000 
     51 H51         5.4745   41.4541  -35.8481 H         1 UNK         0.0000 
     52 H52         5.5581   39.9942  -34.8863 H         1 UNK         0.0000 
@<TRIPOS>BOND
     1    1    2 1    
     2    1   27 1    
     3    1   28 1    
     4    1   29 1    
     5    2    3 1    
     6    2   30 1    
     7    2   31 1    
     8    3   14 ar   
     9    3    4 ar   
    10    4    5 ar   
    11    5    6 ar   
    12    5   21 1    
    13    6    7 ar   
    14    7   14 ar   
    15    7    8 ar   
    16    8    9 ar   
    17    8   32 1    
    18    9   10 1    
    19    9   12 ar   
    20   10   11 1    
    21   11   33 1    
    22   11   34 1    
    23   11   35 1    
    24   12   13 ar   
    25   12   15 1    
    26   13   14 ar   
    27   13   36 1    
    28   15   20 ar   
    29   15   16 ar   
    30   16   17 ar   
    31   16   37 1    
    32   17   18 ar   
    33   17   38 1    
    34   18   19 ar   
    35   19   20 ar   
    36   19   39 1    
    37   20   40 1    
    38   21   22 1    
    39   21   23 1    
    40   21   41 1    
    41   22   42 1    
    42   22   43 1    
    43   23   24 1    
    44   23   44 1    
    45   23   45 1    
    46   24   25 1    
    47   24   26 1    
    48   24   46 1    
    49   25   47 1    
    50   25   48 1    
    51   25   49 1    
    52   26   50 1    
    53   26   51 1    
    54   26   52 1    
@<TRIPOS>SUBSTRUCTURE
     1 UNK         1 GROUP             0       ****    0 ROOT    
