@<TRIPOS>MOLECULE
/home/yujie/leadopt/data/result/selection/AAK1/lig_17.sdf:1
48   50    1
SMALL
USER_CHARGES


@<TRIPOS>ATOM
      1 C1          2.4465   41.2770  -36.5874 C.3       1 UNK         0.0000 
      2 C2          3.4553   40.6731  -35.5907 C.3       1 UNK         0.0000 
      3 C3          4.8981   40.9250  -36.0679 C.3       1 UNK         0.0000 
      4 C4          3.1644   39.1696  -35.3329 C.3       1 UNK         0.0000 
      5 C5          3.9959   38.5146  -34.1975 C.3       1 UNK         0.0000 
      6 N6          3.7296   37.0017  -34.1967 N.4       1 UNK         0.0000 
      7 C7          3.7504   39.1313  -32.8247 C.ar      1 UNK         0.0000 
      8 N8          2.5520   38.8944  -32.2380 N.ar      1 UNK         0.0000 
      9 C9          2.3306   39.4973  -31.0384 C.ar      1 UNK         0.0000 
     10 C10         1.0709   39.3190  -30.4208 C.ar      1 UNK         0.0000 
     11 C11         0.7807   39.9633  -29.2209 C.ar      1 UNK         0.0000 
     12 C12         1.7123   40.8075  -28.6198 C.ar      1 UNK         0.0000 
     13 C13         2.9638   40.9974  -29.2065 C.ar      1 UNK         0.0000 
     14 C14         3.3207   40.3176  -30.4068 C.ar      1 UNK         0.0000 
     15 C15         4.5871   40.4201  -31.0870 C.ar      1 UNK         0.0000 
     16 N16         4.7593   39.8724  -32.3214 N.ar      1 UNK         0.0000 
     17 N17         5.7112   41.0990  -30.5369 N.pl3     1 UNK         0.0000 
     18 C18         6.1182   40.7434  -29.1768 C.3       1 UNK         0.0000 
     19 C19         6.8424   41.4564  -31.3967 C.3       1 UNK         0.0000 
     20 C20         1.4073   41.5074  -27.3448 C.2       1 UNK         0.0000 
     21 C21         1.8058   42.7019  -26.7624 C.2       1 UNK         0.0000 
     22 N22         1.3300   42.8200  -25.5381 N.2       1 UNK         0.0000 
     23 C23         0.6362   41.7211  -25.3650 C.2       1 UNK         0.0000 
     24 O24         0.6299   40.8790  -26.4299 O.3       1 UNK         0.0000 
     25 H25         2.5311   40.8201  -37.5738 H         1 UNK         0.0000 
     26 H26         2.6040   42.3483  -36.7132 H         1 UNK         0.0000 
     27 H27         1.4196   41.1419  -36.2484 H         1 UNK         0.0000 
     28 H28         3.3296   41.2078  -34.6483 H         1 UNK         0.0000 
     29 H29         5.1218   40.3670  -36.9782 H         1 UNK         0.0000 
     30 H30         5.0650   41.9801  -36.2868 H         1 UNK         0.0000 
     31 H31         5.6272   40.6385  -35.3100 H         1 UNK         0.0000 
     32 H32         2.1048   39.0496  -35.1022 H         1 UNK         0.0000 
     33 H33         3.3222   38.6287  -36.2679 H         1 UNK         0.0000 
     34 H34         5.0606   38.5485  -34.4370 H         1 UNK         0.0000 
     35 H35         4.3027   36.5501  -33.4968 H         1 UNK         0.0000 
     36 H36         2.7562   36.7978  -33.9746 H         1 UNK         0.0000 
     37 H37         0.3326   38.6883  -30.8955 H         1 UNK         0.0000 
     38 H38        -0.1893   39.8238  -28.7672 H         1 UNK         0.0000 
     39 H39         3.6657   41.6748  -28.7440 H         1 UNK         0.0000 
     40 H40         5.3230   40.3369  -28.5544 H         1 UNK         0.0000 
     41 H41         6.9070   39.9887  -29.2032 H         1 UNK         0.0000 
     42 H42         6.5124   41.6256  -28.6699 H         1 UNK         0.0000 
     43 H43         6.5053   41.8097  -32.3715 H         1 UNK         0.0000 
     44 H44         7.4356   42.2550  -30.9445 H         1 UNK         0.0000 
     45 H45         7.4873   40.5921  -31.5655 H         1 UNK         0.0000 
     46 H46         2.4455   43.4504  -27.2044 H         1 UNK         0.0000 
     47 H47         0.1298   41.3747  -24.4787 H         1 UNK         0.0000 
     48 H48         3.9369   36.5916  -35.0944 H         1 UNK         0.0000 
@<TRIPOS>BOND
     1    1    2 1    
     2    1   25 1    
     3    1   26 1    
     4    1   27 1    
     5    2    3 1    
     6    2    4 1    
     7    2   28 1    
     8    3   29 1    
     9    3   30 1    
    10    3   31 1    
    11    4    5 1    
    12    4   32 1    
    13    4   33 1    
    14    5    6 1    
    15    5    7 1    
    16    5   34 1    
    17    6   35 1    
    18    6   36 1    
    19    6   48 1    
    20    7   16 ar   
    21    7    8 ar   
    22    8    9 ar   
    23    9   14 ar   
    24    9   10 ar   
    25   10   11 ar   
    26   10   37 1    
    27   11   12 ar   
    28   11   38 1    
    29   12   13 ar   
    30   12   20 1    
    31   13   14 ar   
    32   13   39 1    
    33   14   15 ar   
    34   15   16 ar   
    35   15   17 1    
    36   17   18 1    
    37   17   19 1    
    38   18   40 1    
    39   18   41 1    
    40   18   42 1    
    41   19   43 1    
    42   19   44 1    
    43   19   45 1    
    44   20   24 1    
    45   20   21 2    
    46   21   22 1    
    47   21   46 1    
    48   22   23 2    
    49   23   24 1    
    50   23   47 1    
@<TRIPOS>SUBSTRUCTURE
     1 UNK         1 GROUP             0       ****    0 ROOT    
