/home/yujie/leadopt/data/result/selection/AAK1/lig_18.sdf:1
                    3D
 Schrodinger Suite 2020-3.
 40 42  0  0  1  0            999 V2000
    2.4338   41.4452  -36.5861 C   0  0  0  0  0  0
    3.4378   40.8502  -35.5783 C   0  0  0  0  0  0
    4.8800   41.0808  -36.0699 C   0  0  0  0  0  0
    3.1282   39.3579  -35.2841 C   0  0  0  0  0  0
    3.9490   38.7190  -34.1344 C   0  0  2  0  0  0
    3.7298   37.2807  -34.1294 N   0  0  0  0  0  0
    3.6673   39.3388  -32.7606 C   0  0  0  0  0  0
    2.4694   39.0679  -32.1683 N   0  0  0  0  0  0
    2.2311   39.6528  -30.9568 C   0  0  0  0  0  0
    0.9968   39.4142  -30.3068 C   0  0  0  0  0  0
    0.7183   40.0199  -29.0814 C   0  0  0  0  0  0
    1.6428   40.8694  -28.4701 C   0  0  0  0  0  0
    2.8730   41.1100  -29.0857 C   0  0  0  0  0  0
    3.1900   40.5123  -30.3361 C   0  0  0  0  0  0
    4.4051   40.6992  -31.0600 C   0  0  0  0  0  0
    4.6504   40.1280  -32.2624 N   0  0  0  0  0  0
    5.4950   41.5353  -30.5703 C   0  0  0  0  0  0
    6.3570   42.2013  -30.1792 N   0  0  0  0  0  0
    1.3300   41.5237  -27.1663 C   0  0  0  0  0  0
    0.3878   41.3422  -26.1620 C   0  0  0  0  0  0
    0.5630   42.2014  -25.1742 N   0  0  0  0  0  0
    1.5786   42.9309  -25.5707 C   0  0  0  0  0  0
    2.0992   42.5683  -26.7691 O   0  0  0  0  0  0
    2.5291   40.9822  -37.5697 H   0  0  0  0  0  0
    2.5918   42.5171  -36.7159 H   0  0  0  0  0  0
    1.4035   41.3110  -36.2551 H   0  0  0  0  0  0
    3.3295   41.4013  -34.6442 H   0  0  0  0  0  0
    5.0876   40.5139  -36.9786 H   0  0  0  0  0  0
    5.0552   42.1340  -36.2953 H   0  0  0  0  0  0
    5.6151   40.7916  -35.3190 H   0  0  0  0  0  0
    2.0663   39.2473  -35.0589 H   0  0  0  0  0  0
    3.2922   38.7900  -36.2020 H   0  0  0  0  0  0
    5.0089   38.8426  -34.3620 H   0  0  0  0  0  0
    4.2189   36.8464  -33.3584 H   0  0  0  0  0  0
    2.7465   37.0450  -34.0155 H   0  0  0  0  0  0
    0.2694   38.7650  -30.7736 H   0  0  0  0  0  0
   -0.2362   39.8339  -28.6098 H   0  0  0  0  0  0
    3.5940   41.7607  -28.6122 H   0  0  0  0  0  0
   -0.3969   40.6016  -26.1385 H   0  0  0  0  0  0
    2.0621   43.7606  -25.0759 H   0  0  0  0  0  0
  1  2  1  0  0  0
  1 24  1  0  0  0
  1 25  1  0  0  0
  1 26  1  0  0  0
  2  3  1  0  0  0
  2  4  1  0  0  0
  2 27  1  0  0  0
  3 28  1  0  0  0
  3 29  1  0  0  0
  3 30  1  0  0  0
  4  5  1  0  0  0
  4 31  1  0  0  0
  4 32  1  0  0  0
  5  6  1  0  0  0
  5  7  1  0  0  0
  5 33  1  0  0  0
  6 34  1  0  0  0
  6 35  1  0  0  0
  7 16  1  0  0  0
  7  8  2  0  0  0
  8  9  1  0  0  0
  9 14  1  0  0  0
  9 10  2  0  0  0
 10 11  1  0  0  0
 10 36  1  0  0  0
 11 12  2  0  0  0
 11 37  1  0  0  0
 12 13  1  0  0  0
 12 19  1  0  0  0
 13 14  2  0  0  0
 13 38  1  0  0  0
 14 15  1  0  0  0
 15 16  2  0  0  0
 15 17  1  0  0  0
 17 18  3  0  0  0
 19 23  1  0  0  0
 19 20  2  0  0  0
 20 21  1  0  0  0
 20 39  1  0  0  0
 21 22  2  0  0  0
 22 23  1  0  0  0
 22 40  1  0  0  0
M  END
> <s_m_source_file>
/home/yujie/leadopt/data/result/selection/AAK1/lig_18.sdf

> <i_m_source_file_index>
1

> <i_lp_mmshare_version>
51139

> <i_f3d_flags>
0

> <s_epik_input>
W0NIM11bQ0hdKFtDSDNdKVtDSDJdW0NASF0oW05IMl0pYyhuMSluYyhDI04pYyhjMTIpW2NIXWMoW2NIXVtjSF0yKS1jM1tjSF1uW2NIXW8z

> <s_epik_cmdline>
J2VwaWtfcHl0aG9uJywgJy1waHQnLCAnMi4wJywgJy1waCcsICc3LjAnLCAnLXRuJywgJzgnLCAnLW1hJywgJzIwMCcsICctaW1hZScsICc8aW5maWxlLm1hZT4nLCAnLW9tYWUnLCAnPG91dGZpbGUubWFlPic=

> <r_epik_Ionization_Penalty>
  1.1035

> <r_epik_Ionization_Penalty_Charging>
  0.0000

> <r_epik_Ionization_Penalty_Neutral>
  1.1035

> <r_epik_State_Penalty>
  1.1608

> <r_epik_Charging_Adjusted_Penalty>
1.16084

> <i_epik_Tot_Q>
0

> <i_epik_Tot_abs_Q>
0

> <s_epik_Chemistry_Notes>
This compound contains an electron-poor aromatic ring that is susceptible to covalent hydrolysis at low pH, typically resulting in measured values for nitrogen ring protonation that are around two units higher than predicted values.

> <s_lp_Force_Field>
OPLS3e

> <r_lp_Energy>
26.4847

> <b_lp_Chiralities_Consistent>
1

> <s_lp_Variant>
/home/yujie/leadopt/data/result/selection/AAK1/lig_18.sdf:1-2

> <s_i_glide_gridfile>
glide-grid_AAK1

> <i_i_glide_lignum>
2

> <i_i_glide_rotatable_bonds>
4

> <r_i_docking_score>
-5.34888104769893

> <r_i_glide_ligand_efficiency>
-0.232560045552127

> <r_i_glide_ligand_efficiency_sa>
-0.66136983368723

> <r_i_glide_ligand_efficiency_ln>
-1.29340793830542

> <r_i_glide_gscore>
-6.50972104769893

> <r_i_glide_lipo>
-3.2563053606833

> <r_i_glide_hbond>
-0.145077454608453

> <r_i_glide_metal>
-0

> <r_i_glide_rewards>
-1.6538246400095

> <r_i_glide_evdw>
-38.3709144592285

> <r_i_glide_ecoul>
-0.820225954055786

> <r_i_glide_erotb>
0.587066023672115

> <r_i_glide_esite>
0

> <r_i_glide_emodel>
-55.3164789771019

> <r_i_glide_energy>
-39.1911404132843

> <r_i_glide_einternal>
0.725159347057343

> <i_i_glide_confnum>
3

> <i_i_glide_posenum>
274

> <r_i_glide_eff_state_penalty>
1.16084

$$$$
