@<TRIPOS>MOLECULE
/home/yujie/leadopt/data/result/selection/AAK1/lig_20.sdf:1
43   45    1
SMALL
USER_CHARGES


@<TRIPOS>ATOM
      1 C1          3.8647   43.1898  -29.2686 C.3       1 UNK         0.0000 
      2 O2          3.7711   41.9013  -28.6664 O.3       1 UNK         0.0000 
      3 C3          2.7716   41.1068  -29.1810 C.ar      1 UNK         0.0000 
      4 C4          2.9629   40.4214  -30.4145 C.ar      1 UNK         0.0000 
      5 C5          4.1581   40.4519  -31.1752 C.ar      1 UNK         0.0000 
      6 N6          4.3128   39.8261  -32.3647 N.ar      1 UNK         0.0000 
      7 C7          3.2302   39.1370  -32.8127 C.ar      1 UNK         0.0000 
      8 N8          2.0375   39.0018  -32.1720 N.ar      1 UNK         0.0000 
      9 C9          1.9066   39.6378  -30.9711 C.ar      1 UNK         0.0000 
     10 C10         0.6895   39.5310  -30.2672 C.ar      1 UNK         0.0000 
     11 C11         0.5356   40.1749  -29.0433 C.ar      1 UNK         0.0000 
     12 C12         1.5589   40.9499  -28.4906 C.ar      1 UNK         0.0000 
     13 C13         1.3274   41.5733  -27.1537 C.2       1 UNK         0.0000 
     14 C14         1.8195   42.6725  -26.4604 C.2       1 UNK         0.0000 
     15 N15         1.3217   42.7395  -25.2410 N.2       1 UNK         0.0000 
     16 C16         0.5299   41.6974  -25.1755 C.2       1 UNK         0.0000 
     17 O17         0.4784   40.9482  -26.3027 O.3       1 UNK         0.0000 
     18 C18         3.3429   38.4406  -34.1735 C.3       1 UNK         0.0000 
     19 N19         4.1272   37.2219  -34.0460 N.3       1 UNK         0.0000 
     20 C20         3.9786   39.3083  -35.2933 C.3       1 UNK         0.0000 
     21 C21         3.2915   40.6706  -35.5690 C.3       1 UNK         0.0000 
     22 C22         1.8114   40.5203  -35.9703 C.3       1 UNK         0.0000 
     23 C23         4.0582   41.4699  -36.6360 C.3       1 UNK         0.0000 
     24 H24         2.3468   38.1329  -34.4993 H         1 UNK         0.0000 
     25 H25         4.6523   43.7631  -28.7786 H         1 UNK         0.0000 
     26 H26         4.1100   43.1354  -30.3300 H         1 UNK         0.0000 
     27 H27         2.9352   43.7512  -29.1651 H         1 UNK         0.0000 
     28 H28         5.0153   40.9998  -30.8117 H         1 UNK         0.0000 
     29 H29        -0.1158   38.9408  -30.6814 H         1 UNK         0.0000 
     30 H30        -0.4022   40.0699  -28.5175 H         1 UNK         0.0000 
     31 H31         2.5390   43.3919  -26.8190 H         1 UNK         0.0000 
     32 H32        -0.0888   41.3568  -24.3593 H         1 UNK         0.0000 
     33 H33         3.6104   36.5687  -33.4717 H         1 UNK         0.0000 
     34 H34         4.2296   36.7786  -34.9463 H         1 UNK         0.0000 
     35 H35         3.9901   38.7352  -36.2222 H         1 UNK         0.0000 
     36 H36         5.0272   39.4908  -35.0495 H         1 UNK         0.0000 
     37 H37         3.3303   41.2624  -34.6534 H         1 UNK         0.0000 
     38 H38         1.6932   39.7933  -36.7742 H         1 UNK         0.0000 
     39 H39         1.3868   41.4638  -36.3165 H         1 UNK         0.0000 
     40 H40         1.2086   40.1937  -35.1232 H         1 UNK         0.0000 
     41 H41         4.0430   40.9644  -37.6025 H         1 UNK         0.0000 
     42 H42         3.6162   42.4579  -36.7720 H         1 UNK         0.0000 
     43 H43         5.1008   41.6203  -36.3532 H         1 UNK         0.0000 
@<TRIPOS>BOND
     1    1    2 1    
     2    1   25 1    
     3    1   26 1    
     4    1   27 1    
     5    2    3 1    
     6    3   12 ar   
     7    3    4 ar   
     8    4    9 ar   
     9    4    5 ar   
    10    5    6 ar   
    11    5   28 1    
    12    6    7 ar   
    13    7    8 ar   
    14    7   18 1    
    15    8    9 ar   
    16    9   10 ar   
    17   10   11 ar   
    18   10   29 1    
    19   11   12 ar   
    20   11   30 1    
    21   12   13 1    
    22   13   17 1    
    23   13   14 2    
    24   14   15 1    
    25   14   31 1    
    26   15   16 2    
    27   16   17 1    
    28   16   32 1    
    29   18   24 1    
    30   18   19 1    
    31   18   20 1    
    32   19   33 1    
    33   19   34 1    
    34   20   21 1    
    35   20   35 1    
    36   20   36 1    
    37   21   22 1    
    38   21   23 1    
    39   21   37 1    
    40   22   38 1    
    41   22   39 1    
    42   22   40 1    
    43   23   41 1    
    44   23   42 1    
    45   23   43 1    
@<TRIPOS>SUBSTRUCTURE
     1 UNK         1 GROUP             0       ****    0 ROOT    
