@<TRIPOS>MOLECULE
/home/yujie/leadopt/data/result/selection/AAK1/lig_(S)-32.sdf:1
45   47    1
SMALL
USER_CHARGES


@<TRIPOS>ATOM
      1 C1          2.4312   41.2506  -36.3743 C.3       1 UNK         0.0000 
      2 C2          3.4421   40.6415  -35.3830 C.3       1 UNK         0.0000 
      3 C3          4.8816   40.8840  -35.8769 C.3       1 UNK         0.0000 
      4 C4          3.1383   39.1417  -35.1283 C.3       1 UNK         0.0000 
      5 C5          4.0230   38.4482  -34.0595 C.3       1 UNK         0.0000 
      6 N6          3.7298   37.0248  -34.0572 N.3       1 UNK         0.0000 
      7 C7          3.9106   39.0473  -32.6523 C.ar      1 UNK         0.0000 
      8 N8          2.6698   39.1197  -32.1017 N.ar      1 UNK         0.0000 
      9 C9          2.5253   39.7251  -30.8890 C.ar      1 UNK         0.0000 
     10 C10         1.2248   39.8314  -30.3459 C.ar      1 UNK         0.0000 
     11 C11         1.0089   40.5024  -29.1410 C.ar      1 UNK         0.0000 
     12 O12        -0.2690   40.6388  -28.6608 O.3       1 UNK         0.0000 
     13 C13        -1.0698   41.5387  -29.4122 C.3       1 UNK         0.0000 
     14 C14         2.0785   41.0624  -28.4357 C.ar      1 UNK         0.0000 
     15 C15         1.8570   41.8326  -27.1737 C.2       1 UNK         0.0000 
     16 C16         0.9293   41.8011  -26.1395 C.2       1 UNK         0.0000 
     17 N17         1.1836   42.7284  -25.2340 N.2       1 UNK         0.0000 
     18 C18         2.2394   43.3469  -25.7065 C.2       1 UNK         0.0000 
     19 O19         2.7076   42.8486  -26.8797 O.3       1 UNK         0.0000 
     20 C20         3.3763   40.9342  -28.9337 C.ar      1 UNK         0.0000 
     21 C21         3.6334   40.2719  -30.1702 C.ar      1 UNK         0.0000 
     22 C22         4.9331   40.1298  -30.7543 C.ar      1 UNK         0.0000 
     23 C23         6.1425   40.6151  -30.0978 C.1       1 UNK         0.0000 
     24 N24         7.0986   41.0012  -29.5753 N.1       1 UNK         0.0000 
     25 C25         5.0505   39.5203  -32.0048 C.ar      1 UNK         0.0000 
     26 H26         5.0613   38.5247  -34.3857 H         1 UNK         0.0000 
     27 H27         2.5277   40.8044  -37.3654 H         1 UNK         0.0000 
     28 H28         2.5815   42.3259  -36.4851 H         1 UNK         0.0000 
     29 H29         1.4036   41.0992  -36.0406 H         1 UNK         0.0000 
     30 H30         3.3295   41.1731  -34.4367 H         1 UNK         0.0000 
     31 H31         5.0904   40.3224  -36.7883 H         1 UNK         0.0000 
     32 H32         5.0500   41.9378  -36.0989 H         1 UNK         0.0000 
     33 H33         5.6201   40.5954  -35.1291 H         1 UNK         0.0000 
     34 H34         2.0895   39.0324  -34.8467 H         1 UNK         0.0000 
     35 H35         3.2422   38.6087  -36.0758 H         1 UNK         0.0000 
     36 H36         4.1922   36.5523  -33.2921 H         1 UNK         0.0000 
     37 H37         2.7334   36.8225  -33.9740 H         1 UNK         0.0000 
     38 H38         0.3896   39.4106  -30.8871 H         1 UNK         0.0000 
     39 H39        -1.9713   41.8017  -28.8618 H         1 UNK         0.0000 
     40 H40        -0.5418   42.4723  -29.5735 H         1 UNK         0.0000 
     41 H41        -1.3644   41.1178  -30.3732 H         1 UNK         0.0000 
     42 H42         0.0939   41.1211  -26.0474 H         1 UNK         0.0000 
     43 H43         2.7901   44.1759  -25.2849 H         1 UNK         0.0000 
     44 H44         4.1985   41.3637  -28.3794 H         1 UNK         0.0000 
     45 H45         6.0173   39.4231  -32.4795 H         1 UNK         0.0000 
@<TRIPOS>BOND
     1    1    2 1    
     2    1   27 1    
     3    1   28 1    
     4    1   29 1    
     5    2    3 1    
     6    2    4 1    
     7    2   30 1    
     8    3   31 1    
     9    3   32 1    
    10    3   33 1    
    11    4    5 1    
    12    4   34 1    
    13    4   35 1    
    14    5   26 1    
    15    5    6 1    
    16    5    7 1    
    17    6   36 1    
    18    6   37 1    
    19    7   25 ar   
    20    7    8 ar   
    21    8    9 ar   
    22    9   21 ar   
    23    9   10 ar   
    24   10   11 ar   
    25   10   38 1    
    26   11   12 1    
    27   11   14 ar   
    28   12   13 1    
    29   13   39 1    
    30   13   40 1    
    31   13   41 1    
    32   14   15 1    
    33   14   20 ar   
    34   15   19 1    
    35   15   16 2    
    36   16   17 1    
    37   16   42 1    
    38   17   18 2    
    39   18   19 1    
    40   18   43 1    
    41   20   21 ar   
    42   20   44 1    
    43   21   22 ar   
    44   22   23 1    
    45   22   25 ar   
    46   23   24 3    
    47   25   45 1    
@<TRIPOS>SUBSTRUCTURE
     1 UNK         1 GROUP             0       ****    0 ROOT    
