@<TRIPOS>MOLECULE
/home/yujie/leadopt/data/result/selection/AAK1/lig_33.sdf:1
44   46    1
SMALL
USER_CHARGES


@<TRIPOS>ATOM
      1 C1          2.4308   41.3902  -36.6602 C.3       1 UNK         0.0000 
      2 C2          3.4514   40.7060  -35.7309 C.3       1 UNK         0.0000 
      3 C3          4.8848   41.0137  -36.2066 C.3       1 UNK         0.0000 
      4 C4          3.1723   39.1825  -35.6084 C.3       1 UNK         0.0000 
      5 C5          4.0430   38.4200  -34.5726 C.3       1 UNK         0.0000 
      6 N6          3.7296   37.0016  -34.6385 N.3       1 UNK         0.0000 
      7 C7          3.8946   38.9401  -33.1294 C.ar      1 UNK         0.0000 
      8 N8          2.6180   38.9363  -32.6493 N.ar      1 UNK         0.0000 
      9 C9          2.3695   39.4547  -31.4163 C.ar      1 UNK         0.0000 
     10 C10         1.0401   39.4820  -30.9328 C.ar      1 UNK         0.0000 
     11 C11         0.7541   40.0830  -29.7071 C.ar      1 UNK         0.0000 
     12 C12         1.7611   40.6629  -28.9276 C.ar      1 UNK         0.0000 
     13 C13         1.4449   41.3451  -27.6443 C.ar      1 UNK         0.0000 
     14 C14         0.5869   40.7593  -26.7043 C.ar      1 UNK         0.0000 
     15 C15         0.3671   41.4080  -25.4888 C.ar      1 UNK         0.0000 
     16 N16         0.9296   42.6011  -25.1744 N.ar      1 UNK         0.0000 
     17 C17         1.7395   43.1767  -26.0959 C.ar      1 UNK         0.0000 
     18 C18         2.0208   42.5857  -27.3286 C.ar      1 UNK         0.0000 
     19 C19         3.0849   40.6020  -29.3742 C.ar      1 UNK         0.0000 
     20 C20         3.4086   40.0081  -30.6150 C.ar      1 UNK         0.0000 
     21 C21         4.7328   39.9542  -31.1084 C.ar      1 UNK         0.0000 
     22 C22         4.9817   39.4174  -32.3725 C.ar      1 UNK         0.0000 
     23 C23         6.3603   39.3841  -32.8492 C.1       1 UNK         0.0000 
     24 N24         7.4534   39.3573  -33.2283 N.1       1 UNK         0.0000 
     25 H25         2.5300   41.0335  -37.6861 H         1 UNK         0.0000 
     26 H26         2.5710   42.4722  -36.6770 H         1 UNK         0.0000 
     27 H27         1.4053   41.2035  -36.3395 H         1 UNK         0.0000 
     28 H28         3.3308   41.1527  -34.7426 H         1 UNK         0.0000 
     29 H29         5.0916   40.5510  -37.1724 H         1 UNK         0.0000 
     30 H30         5.0421   42.0869  -36.3214 H         1 UNK         0.0000 
     31 H31         5.6324   40.6558  -35.4996 H         1 UNK         0.0000 
     32 H32         2.1187   39.0314  -35.3680 H         1 UNK         0.0000 
     33 H33         3.3139   38.7289  -36.5913 H         1 UNK         0.0000 
     34 H34         5.0774   38.4926  -34.9058 H         1 UNK         0.0000 
     35 H35         4.2762   36.4810  -33.9661 H         1 UNK         0.0000 
     36 H36         2.7547   36.8220  -34.4051 H         1 UNK         0.0000 
     37 H37         0.2477   39.0586  -31.5335 H         1 UNK         0.0000 
     38 H38        -0.2730   40.1189  -29.3711 H         1 UNK         0.0000 
     39 H39         0.1289   39.8021  -26.8976 H         1 UNK         0.0000 
     40 H40        -0.2704   40.9709  -24.7356 H         1 UNK         0.0000 
     41 H41         2.1733   44.1293  -25.8279 H         1 UNK         0.0000 
     42 H42         2.6803   43.0826  -28.0251 H         1 UNK         0.0000 
     43 H43         3.8810   41.0240  -28.7769 H         1 UNK         0.0000 
     44 H44         5.5360   40.3484  -30.4997 H         1 UNK         0.0000 
@<TRIPOS>BOND
     1    1    2 1    
     2    1   25 1    
     3    1   26 1    
     4    1   27 1    
     5    2    3 1    
     6    2    4 1    
     7    2   28 1    
     8    3   29 1    
     9    3   30 1    
    10    3   31 1    
    11    4    5 1    
    12    4   32 1    
    13    4   33 1    
    14    5    6 1    
    15    5    7 1    
    16    5   34 1    
    17    6   35 1    
    18    6   36 1    
    19    7   22 ar   
    20    7    8 ar   
    21    8    9 ar   
    22    9   20 ar   
    23    9   10 ar   
    24   10   11 ar   
    25   10   37 1    
    26   11   12 ar   
    27   11   38 1    
    28   12   13 1    
    29   12   19 ar   
    30   13   18 ar   
    31   13   14 ar   
    32   14   15 ar   
    33   14   39 1    
    34   15   16 ar   
    35   15   40 1    
    36   16   17 ar   
    37   17   18 ar   
    38   17   41 1    
    39   18   42 1    
    40   19   20 ar   
    41   19   43 1    
    42   20   21 ar   
    43   21   22 ar   
    44   21   44 1    
    45   22   23 1    
    46   23   24 3    
@<TRIPOS>SUBSTRUCTURE
     1 UNK         1 GROUP             0       ****    0 ROOT    
