@<TRIPOS>MOLECULE
/home/yujie/leadopt/data/result/selection/AAK1/lig_24.sdf:1
46   48    1
SMALL
USER_CHARGES


@<TRIPOS>ATOM
      1 C1          6.0935   41.2215  -30.7738 C.3       1 UNK         0.0000 
      2 C2          5.6403   39.7695  -30.5421 C.3       1 UNK         0.0000 
      3 C3          4.3097   39.4516  -31.2210 C.ar      1 UNK         0.0000 
      4 N4          4.4023   38.8449  -32.4273 N.ar      1 UNK         0.0000 
      5 C5          3.2276   38.5564  -33.0351 C.ar      1 UNK         0.0000 
      6 C6          3.3093   37.9448  -34.4262 C.3       1 UNK         0.0000 
      7 C7          3.9897   38.8538  -35.4830 C.3       1 UNK         0.0000 
      8 C8          3.3816   40.2697  -35.6638 C.3       1 UNK         0.0000 
      9 C9          1.8678   40.2314  -35.9416 C.3       1 UNK         0.0000 
     10 C10         4.1180   41.0583  -36.7625 C.3       1 UNK         0.0000 
     11 N11         1.9793   38.7891  -32.5509 N.ar      1 UNK         0.0000 
     12 C12         1.8993   39.4010  -31.3361 C.ar      1 UNK         0.0000 
     13 C13         0.6243   39.6740  -30.7955 C.ar      1 UNK         0.0000 
     14 C14         0.5089   40.3491  -29.5841 C.ar      1 UNK         0.0000 
     15 C15         1.6389   40.7674  -28.8742 C.ar      1 UNK         0.0000 
     16 C16         2.9104   40.4765  -29.3805 C.ar      1 UNK         0.0000 
     17 C17         3.0662   39.7915  -30.6108 C.ar      1 UNK         0.0000 
     18 C18         1.5044   41.5207  -27.6012 C.ar      1 UNK         0.0000 
     19 C19         2.3101   42.6419  -27.3454 C.ar      1 UNK         0.0000 
     20 C20         2.1891   43.3067  -26.1260 C.ar      1 UNK         0.0000 
     21 N21         1.3189   42.9160  -25.1667 N.ar      1 UNK         0.0000 
     22 C22         0.5295   41.8396  -25.4205 C.ar      1 UNK         0.0000 
     23 C23         0.5900   41.1251  -26.6162 C.ar      1 UNK         0.0000 
     24 H24         7.0493   41.4139  -30.2840 H         1 UNK         0.0000 
     25 H25         6.2205   41.4301  -31.8367 H         1 UNK         0.0000 
     26 H26         5.3709   41.9372  -30.3781 H         1 UNK         0.0000 
     27 H27         5.5726   39.5503  -29.4751 H         1 UNK         0.0000 
     28 H28         6.4123   39.0930  -30.9170 H         1 UNK         0.0000 
     29 H29         2.3130   37.6559  -34.7684 H         1 UNK         0.0000 
     30 H30         3.8592   37.0047  -34.3443 H         1 UNK         0.0000 
     31 H31         3.9752   38.3327  -36.4411 H         1 UNK         0.0000 
     32 H32         5.0442   38.9550  -35.2234 H         1 UNK         0.0000 
     33 H33         3.5241   40.8191  -34.7308 H         1 UNK         0.0000 
     34 H34         1.6331   39.5685  -36.7733 H         1 UNK         0.0000 
     35 H35         1.4729   41.2210  -36.1815 H         1 UNK         0.0000 
     36 H36         1.3292   39.8719  -35.0692 H         1 UNK         0.0000 
     37 H37         4.0033   40.5873  -37.7397 H         1 UNK         0.0000 
     38 H38         3.7363   42.0772  -36.8420 H         1 UNK         0.0000 
     39 H39         5.1856   41.1294  -36.5538 H         1 UNK         0.0000 
     40 H40        -0.2595   39.3706  -31.3385 H         1 UNK         0.0000 
     41 H41        -0.4805   40.5651  -29.2010 H         1 UNK         0.0000 
     42 H42         3.7867   40.7817  -28.8291 H         1 UNK         0.0000 
     43 H43         3.0210   42.9913  -28.0795 H         1 UNK         0.0000 
     44 H44         2.7954   44.1709  -25.9000 H         1 UNK         0.0000 
     45 H45        -0.1680   41.5474  -24.6480 H         1 UNK         0.0000 
     46 H46        -0.0540   40.2703  -26.7667 H         1 UNK         0.0000 
@<TRIPOS>BOND
     1    1    2 1    
     2    1   24 1    
     3    1   25 1    
     4    1   26 1    
     5    2    3 1    
     6    2   27 1    
     7    2   28 1    
     8    3   17 ar   
     9    3    4 ar   
    10    4    5 ar   
    11    5    6 1    
    12    5   11 ar   
    13    6    7 1    
    14    6   29 1    
    15    6   30 1    
    16    7    8 1    
    17    7   31 1    
    18    7   32 1    
    19    8    9 1    
    20    8   10 1    
    21    8   33 1    
    22    9   34 1    
    23    9   35 1    
    24    9   36 1    
    25   10   37 1    
    26   10   38 1    
    27   10   39 1    
    28   11   12 ar   
    29   12   17 ar   
    30   12   13 ar   
    31   13   14 ar   
    32   13   40 1    
    33   14   15 ar   
    34   14   41 1    
    35   15   16 ar   
    36   15   18 1    
    37   16   17 ar   
    38   16   42 1    
    39   18   23 ar   
    40   18   19 ar   
    41   19   20 ar   
    42   19   43 1    
    43   20   21 ar   
    44   20   44 1    
    45   21   22 ar   
    46   22   23 ar   
    47   22   45 1    
    48   23   46 1    
@<TRIPOS>SUBSTRUCTURE
     1 UNK         1 GROUP             0       ****    0 ROOT    
