@<TRIPOS>MOLECULE
/home/yujie/leadopt/data/result/selection/AAK1/lig_23.sdf:1
48   50    1
SMALL
USER_CHARGES


@<TRIPOS>ATOM
      1 C1          6.0019   41.4283  -30.8147 C.3       1 UNK         0.0000 
      2 C2          5.6194   39.9490  -30.6462 C.3       1 UNK         0.0000 
      3 C3          4.2886   39.6015  -31.3090 C.ar      1 UNK         0.0000 
      4 N4          4.3814   39.0586  -32.5457 N.ar      1 UNK         0.0000 
      5 C5          3.2071   38.7419  -33.1522 C.ar      1 UNK         0.0000 
      6 N6          1.9625   38.9058  -32.6266 N.ar      1 UNK         0.0000 
      7 C7          1.8813   39.4589  -31.3826 C.ar      1 UNK         0.0000 
      8 C8          0.6072   39.6760  -30.8096 C.ar      1 UNK         0.0000 
      9 C9          0.4941   40.3158  -29.5770 C.ar      1 UNK         0.0000 
     10 C10         1.6224   40.7529  -28.8762 C.ar      1 UNK         0.0000 
     11 C11         2.8917   40.5036  -29.4067 C.ar      1 UNK         0.0000 
     12 C12         3.0460   39.8645  -30.6627 C.ar      1 UNK         0.0000 
     13 C13         1.4877   41.4969  -27.5961 C.ar      1 UNK         0.0000 
     14 C14         0.5965   41.0764  -26.5994 C.ar      1 UNK         0.0000 
     15 C15         0.5294   41.7926  -25.4042 C.ar      1 UNK         0.0000 
     16 N16         1.2780   42.8982  -25.1621 N.ar      1 UNK         0.0000 
     17 C17         2.1272   43.3108  -26.1336 C.ar      1 UNK         0.0000 
     18 C18         2.2602   42.6431  -27.3512 C.ar      1 UNK         0.0000 
     19 C19         3.2517   38.1927  -34.5875 C.3       1 UNK         0.0000 
     20 N20         4.5208   37.5759  -34.9600 N.3       1 UNK         0.0000 
     21 C21         2.8030   39.2279  -35.6576 C.3       1 UNK         0.0000 
     22 C22         3.4556   40.6391  -35.6378 C.3       1 UNK         0.0000 
     23 C23         2.7268   41.5935  -36.6049 C.3       1 UNK         0.0000 
     24 C24         4.9651   40.6216  -35.9427 C.3       1 UNK         0.0000 
     25 H25         6.9571   41.6404  -30.3333 H         1 UNK         0.0000 
     26 H26         6.0982   41.6905  -31.8688 H         1 UNK         0.0000 
     27 H27         5.2566   42.0909  -30.3746 H         1 UNK         0.0000 
     28 H28         5.5881   39.6744  -29.5912 H         1 UNK         0.0000 
     29 H29         6.4105   39.3287  -31.0726 H         1 UNK         0.0000 
     30 H30        -0.2769   39.3678  -31.3488 H         1 UNK         0.0000 
     31 H31        -0.4930   40.5002  -29.1763 H         1 UNK         0.0000 
     32 H32         3.7692   40.8209  -28.8639 H         1 UNK         0.0000 
     33 H33        -0.0205   40.2019  -26.7393 H         1 UNK         0.0000 
     34 H34        -0.1460   41.4813  -24.6208 H         1 UNK         0.0000 
     35 H35         2.7102   44.1949  -25.9197 H         1 UNK         0.0000 
     36 H36         2.9515   43.0135  -28.0942 H         1 UNK         0.0000 
     37 H37         2.5275   37.3782  -34.6061 H         1 UNK         0.0000 
     38 H38         4.6957   36.8001  -34.3351 H         1 UNK         0.0000 
     39 H39         4.4534   37.1901  -35.8899 H         1 UNK         0.0000 
     40 H40         1.7286   39.3587  -35.5336 H         1 UNK         0.0000 
     41 H41         2.9124   38.7943  -36.6531 H         1 UNK         0.0000 
     42 H42         3.3332   41.0536  -34.6357 H         1 UNK         0.0000 
     43 H43         2.8217   41.2640  -37.6403 H         1 UNK         0.0000 
     44 H44         3.1309   42.6038  -36.5438 H         1 UNK         0.0000 
     45 H45         1.6624   41.6606  -36.3772 H         1 UNK         0.0000 
     46 H46         5.1723   40.1501  -36.9038 H         1 UNK         0.0000 
     47 H47         5.3748   41.6315  -35.9768 H         1 UNK         0.0000 
     48 H48         5.5210   40.0804  -35.1768 H         1 UNK         0.0000 
@<TRIPOS>BOND
     1    1    2 1    
     2    1   25 1    
     3    1   26 1    
     4    1   27 1    
     5    2    3 1    
     6    2   28 1    
     7    2   29 1    
     8    3   12 ar   
     9    3    4 ar   
    10    4    5 ar   
    11    5    6 ar   
    12    5   19 1    
    13    6    7 ar   
    14    7   12 ar   
    15    7    8 ar   
    16    8    9 ar   
    17    8   30 1    
    18    9   10 ar   
    19    9   31 1    
    20   10   11 ar   
    21   10   13 1    
    22   11   12 ar   
    23   11   32 1    
    24   13   18 ar   
    25   13   14 ar   
    26   14   15 ar   
    27   14   33 1    
    28   15   16 ar   
    29   15   34 1    
    30   16   17 ar   
    31   17   18 ar   
    32   17   35 1    
    33   18   36 1    
    34   19   20 1    
    35   19   21 1    
    36   19   37 1    
    37   20   38 1    
    38   20   39 1    
    39   21   22 1    
    40   21   40 1    
    41   21   41 1    
    42   22   23 1    
    43   22   24 1    
    44   22   42 1    
    45   23   43 1    
    46   23   44 1    
    47   23   45 1    
    48   24   46 1    
    49   24   47 1    
    50   24   48 1    
@<TRIPOS>SUBSTRUCTURE
     1 UNK         1 GROUP             0       ****    0 ROOT    
