@<TRIPOS>MOLECULE
/home/yujie/leadopt/data/result/selection/AAK1/lig_31.sdf:1
45   47    1
SMALL
USER_CHARGES


@<TRIPOS>ATOM
      1 C1          2.4663   41.5802  -36.7738 C.3       1 UNK         0.0000 
      2 C2          3.4135   40.7928  -35.8504 C.3       1 UNK         0.0000 
      3 C3          4.8731   40.9737  -36.3070 C.3       1 UNK         0.0000 
      4 C4          2.9917   39.3027  -35.7377 C.3       1 UNK         0.0000 
      5 C5          3.7671   38.4729  -34.6803 C.3       1 UNK         0.0000 
      6 N6          3.3296   37.0015  -34.7738 N.4       1 UNK         0.0000 
      7 C7          3.6389   39.0233  -33.2632 C.ar      1 UNK         0.0000 
      8 N8          2.4013   38.9805  -32.7087 N.ar      1 UNK         0.0000 
      9 C9          2.2228   39.4943  -31.4620 C.ar      1 UNK         0.0000 
     10 C10         0.9241   39.4578  -30.9036 C.ar      1 UNK         0.0000 
     11 C11         0.6749   40.0497  -29.6686 C.ar      1 UNK         0.0000 
     12 C12         1.6930   40.6776  -28.9455 C.ar      1 UNK         0.0000 
     13 C13         2.9913   40.6785  -29.4642 C.ar      1 UNK         0.0000 
     14 C14         3.2899   40.1047  -30.7316 C.ar      1 UNK         0.0000 
     15 C15         4.5883   40.1200  -31.3385 C.ar      1 UNK         0.0000 
     16 C16         4.7425   39.5703  -32.6123 C.ar      1 UNK         0.0000 
     17 C17         5.7541   40.7157  -30.6878 C.1       1 UNK         0.0000 
     18 N18         6.6753   41.1902  -30.1713 N.1       1 UNK         0.0000 
     19 C19         1.4122   41.3510  -27.6487 C.ar      1 UNK         0.0000 
     20 C20         1.9897   42.5929  -27.3420 C.ar      1 UNK         0.0000 
     21 C21         1.7295   43.1791  -26.1036 C.ar      1 UNK         0.0000 
     22 N22         0.9297   42.6026  -25.1737 N.ar      1 UNK         0.0000 
     23 C23         0.3675   41.4074  -25.4765 C.ar      1 UNK         0.0000 
     24 C24         0.5789   40.7578  -26.6921 C.ar      1 UNK         0.0000 
     25 H25         2.5307   41.2290  -37.8039 H         1 UNK         0.0000 
     26 H26         2.7085   42.6433  -36.7795 H         1 UNK         0.0000 
     27 H27         1.4278   41.4925  -36.4517 H         1 UNK         0.0000 
     28 H28         3.3292   41.2438  -34.8598 H         1 UNK         0.0000 
     29 H29         5.0405   40.5337  -37.2901 H         1 UNK         0.0000 
     30 H30         5.1345   42.0299  -36.3736 H         1 UNK         0.0000 
     31 H31         5.5767   40.5167  -35.6120 H         1 UNK         0.0000 
     32 H32         1.9258   39.2569  -35.5069 H         1 UNK         0.0000 
     33 H33         3.1008   38.8413  -36.7208 H         1 UNK         0.0000 
     34 H34         4.8213   38.4005  -34.9612 H         1 UNK         0.0000 
     35 H35         3.9587   36.4173  -34.2413 H         1 UNK         0.0000 
     36 H36         2.3994   36.8496  -34.3808 H         1 UNK         0.0000 
     37 H37         0.1193   38.9946  -31.4570 H         1 UNK         0.0000 
     38 H38        -0.3337   40.0429  -29.2781 H         1 UNK         0.0000 
     39 H39         3.7865   41.1410  -28.8947 H         1 UNK         0.0000 
     40 H40         5.7075   39.5811  -33.0998 H         1 UNK         0.0000 
     41 H41         2.6316   43.0979  -28.0487 H         1 UNK         0.0000 
     42 H42         2.1638   44.1320  -25.8405 H         1 UNK         0.0000 
     43 H43        -0.2668   40.9742  -24.7176 H         1 UNK         0.0000 
     44 H44         0.1293   39.7972  -26.8762 H         1 UNK         0.0000 
     45 H45         3.3302   36.6754  -35.7287 H         1 UNK         0.0000 
@<TRIPOS>BOND
     1    1    2 1    
     2    1   25 1    
     3    1   26 1    
     4    1   27 1    
     5    2    3 1    
     6    2    4 1    
     7    2   28 1    
     8    3   29 1    
     9    3   30 1    
    10    3   31 1    
    11    4    5 1    
    12    4   32 1    
    13    4   33 1    
    14    5    6 1    
    15    5    7 1    
    16    5   34 1    
    17    6   35 1    
    18    6   36 1    
    19    6   45 1    
    20    7   16 ar   
    21    7    8 ar   
    22    8    9 ar   
    23    9   14 ar   
    24    9   10 ar   
    25   10   11 ar   
    26   10   37 1    
    27   11   12 ar   
    28   11   38 1    
    29   12   13 ar   
    30   12   19 1    
    31   13   14 ar   
    32   13   39 1    
    33   14   15 ar   
    34   15   16 ar   
    35   15   17 1    
    36   16   40 1    
    37   17   18 3    
    38   19   24 ar   
    39   19   20 ar   
    40   20   21 ar   
    41   20   41 1    
    42   21   22 ar   
    43   21   42 1    
    44   22   23 ar   
    45   23   24 ar   
    46   23   43 1    
    47   24   44 1    
@<TRIPOS>SUBSTRUCTURE
     1 UNK         1 GROUP             0       ****    0 ROOT    
