@<TRIPOS>MOLECULE
/home/yujie/leadopt/data/result/selection/AAK1/lig_(S)-11.sdf:1
46   48    1
SMALL
USER_CHARGES


@<TRIPOS>ATOM
      1 C1          6.9073   41.7093  -31.4096 C.3       1 UNK         0.0000 
      2 C2          5.5443   41.7666  -30.6866 C.3       1 UNK         0.0000 
      3 C3          4.4736   40.7763  -31.1616 C.ar      1 UNK         0.0000 
      4 N4          4.7081   40.1281  -32.3321 N.ar      1 UNK         0.0000 
      5 C5          3.7612   39.2419  -32.7267 C.ar      1 UNK         0.0000 
      6 N6          2.6023   38.9520  -32.0798 N.ar      1 UNK         0.0000 
      7 C7          2.3653   39.6203  -30.9146 C.ar      1 UNK         0.0000 
      8 C8          1.1648   39.3591  -30.2167 C.ar      1 UNK         0.0000 
      9 C9          0.8901   40.0253  -29.0262 C.ar      1 UNK         0.0000 
     10 C10         1.7787   40.9646  -28.5018 C.ar      1 UNK         0.0000 
     11 C11         2.9704   41.2457  -29.1732 C.ar      1 UNK         0.0000 
     12 C12         3.2880   40.5770  -30.3873 C.ar      1 UNK         0.0000 
     13 C13         1.4739   41.6580  -27.2218 C.2       1 UNK         0.0000 
     14 C14         1.8358   42.8639  -26.6346 C.2       1 UNK         0.0000 
     15 N15         1.3298   42.9759  -25.4180 N.2       1 UNK         0.0000 
     16 C16         0.6690   41.8539  -25.2497 C.2       1 UNK         0.0000 
     17 O17         0.7009   41.0115  -26.3119 O.3       1 UNK         0.0000 
     18 C18         4.0191   38.5287  -34.0558 C.3       1 UNK         0.0000 
     19 N19         3.7296   37.0186  -33.9824 N.4       1 UNK         0.0000 
     20 C20         3.2064   39.1211  -35.2363 C.3       1 UNK         0.0000 
     21 C21         3.4753   40.6166  -35.5536 C.3       1 UNK         0.0000 
     22 C22         2.4618   41.1576  -36.5795 C.3       1 UNK         0.0000 
     23 C23         4.9161   40.8815  -36.0321 C.3       1 UNK         0.0000 
     24 H24         5.0866   38.5432  -34.2807 H         1 UNK         0.0000 
     25 H25         7.6001   42.4434  -30.9958 H         1 UNK         0.0000 
     26 H26         7.3691   40.7269  -31.3020 H         1 UNK         0.0000 
     27 H27         6.8081   41.9191  -32.4757 H         1 UNK         0.0000 
     28 H28         5.1343   42.7740  -30.7719 H         1 UNK         0.0000 
     29 H29         5.7313   41.5906  -29.6263 H         1 UNK         0.0000 
     30 H30         0.4627   38.6399  -30.6158 H         1 UNK         0.0000 
     31 H31        -0.0305   39.8147  -28.5046 H         1 UNK         0.0000 
     32 H32         3.6592   41.9702  -28.7647 H         1 UNK         0.0000 
     33 H33         2.4586   43.6331  -27.0696 H         1 UNK         0.0000 
     34 H34         0.1300   41.4990  -24.3837 H         1 UNK         0.0000 
     35 H35         4.2734   36.5949  -33.2423 H         1 UNK         0.0000 
     36 H36         2.7454   36.8408  -33.7913 H         1 UNK         0.0000 
     37 H37         2.1438   38.9953  -35.0193 H         1 UNK         0.0000 
     38 H38         3.3919   38.5405  -36.1414 H         1 UNK         0.0000 
     39 H39         3.3287   41.1913  -34.6353 H         1 UNK         0.0000 
     40 H40         2.5563   40.6561  -37.5437 H         1 UNK         0.0000 
     41 H41         2.6028   42.2255  -36.7528 H         1 UNK         0.0000 
     42 H42         1.4349   41.0223  -36.2346 H         1 UNK         0.0000 
     43 H43         5.1532   40.3123  -36.9307 H         1 UNK         0.0000 
     44 H44         5.0620   41.9361  -36.2702 H         1 UNK         0.0000 
     45 H45         5.6500   40.6256  -35.2681 H         1 UNK         0.0000 
     46 H46         3.9614   36.5576  -34.8501 H         1 UNK         0.0000 
@<TRIPOS>BOND
     1    1    2 1    
     2    1   25 1    
     3    1   26 1    
     4    1   27 1    
     5    2    3 1    
     6    2   28 1    
     7    2   29 1    
     8    3   12 ar   
     9    3    4 ar   
    10    4    5 ar   
    11    5    6 ar   
    12    5   18 1    
    13    6    7 ar   
    14    7   12 ar   
    15    7    8 ar   
    16    8    9 ar   
    17    8   30 1    
    18    9   10 ar   
    19    9   31 1    
    20   10   11 ar   
    21   10   13 1    
    22   11   12 ar   
    23   11   32 1    
    24   13   17 1    
    25   13   14 2    
    26   14   15 1    
    27   14   33 1    
    28   15   16 2    
    29   16   17 1    
    30   16   34 1    
    31   18   24 1    
    32   18   19 1    
    33   18   20 1    
    34   19   35 1    
    35   19   36 1    
    36   19   46 1    
    37   20   21 1    
    38   20   37 1    
    39   20   38 1    
    40   21   22 1    
    41   21   23 1    
    42   21   39 1    
    43   22   40 1    
    44   22   41 1    
    45   22   42 1    
    46   23   43 1    
    47   23   44 1    
    48   23   45 1    
@<TRIPOS>SUBSTRUCTURE
     1 UNK         1 GROUP             0       ****    0 ROOT    
