@<TRIPOS>MOLECULE
/home/yujie/leadopt/data/result/selection/AAK1/lig_30.sdf:1
44   46    1
SMALL
USER_CHARGES


@<TRIPOS>ATOM
      1 C1          2.4556   41.2510  -36.7099 C.3       1 UNK         0.0000 
      2 C2          3.4661   40.6304  -35.7267 C.3       1 UNK         0.0000 
      3 C3          4.9051   40.9038  -36.2027 C.3       1 UNK         0.0000 
      4 C4          3.1867   39.1187  -35.4979 C.3       1 UNK         0.0000 
      5 C5          4.0244   38.4499  -34.3743 C.3       1 UNK         0.0000 
      6 N6          3.7290   36.9434  -34.3622 N.4       1 UNK         0.0000 
      7 C7          3.8125   39.0783  -33.0034 C.ar      1 UNK         0.0000 
      8 N8          2.5715   38.9441  -32.4618 N.ar      1 UNK         0.0000 
      9 C9          2.3224   39.5243  -31.2535 C.ar      1 UNK         0.0000 
     10 C10         1.0259   39.4259  -30.6969 C.ar      1 UNK         0.0000 
     11 C11         0.7355   40.0510  -29.4842 C.ar      1 UNK         0.0000 
     12 C12         1.7118   40.7731  -28.7850 C.ar      1 UNK         0.0000 
     13 C13         3.0023   40.8621  -29.3150 C.ar      1 UNK         0.0000 
     14 C14         3.3268   40.2558  -30.5503 C.ar      1 UNK         0.0000 
     15 C15         4.6135   40.3600  -31.1339 C.ar      1 UNK         0.0000 
     16 C16         4.8481   39.7671  -32.3737 C.ar      1 UNK         0.0000 
     17 C17         1.4002   41.4279  -27.4866 C.ar      1 UNK         0.0000 
     18 C18         1.9602   42.6711  -27.1502 C.ar      1 UNK         0.0000 
     19 C19         1.7138   43.2152  -25.8902 C.ar      1 UNK         0.0000 
     20 N20         0.9314   42.6017  -24.9705 N.ar      1 UNK         0.0000 
     21 C21         0.3667   41.4166  -25.3063 C.ar      1 UNK         0.0000 
     22 C22         0.5735   40.8030  -26.5400 C.ar      1 UNK         0.0000 
     23 H23         2.5371   40.8057  -37.7007 H         1 UNK         0.0000 
     24 H24         2.6197   42.3233  -36.8233 H         1 UNK         0.0000 
     25 H25         1.4277   41.1184  -36.3699 H         1 UNK         0.0000 
     26 H26         3.3327   41.1469  -34.7739 H         1 UNK         0.0000 
     27 H27         5.1139   40.4009  -37.1469 H         1 UNK         0.0000 
     28 H28         5.0728   41.9703  -36.3589 H         1 UNK         0.0000 
     29 H29         5.6462   40.5721  -35.4756 H         1 UNK         0.0000 
     30 H30         2.1288   38.9889  -35.2662 H         1 UNK         0.0000 
     31 H31         3.3452   38.5934  -36.4401 H         1 UNK         0.0000 
     32 H32         5.0839   38.4651  -34.6340 H         1 UNK         0.0000 
     33 H33         4.3095   36.4811  -33.6752 H         1 UNK         0.0000 
     34 H34         2.7607   36.7581  -34.1119 H         1 UNK         0.0000 
     35 H35         0.2591   38.8786  -31.2255 H         1 UNK         0.0000 
     36 H36        -0.2690   39.9779  -29.0895 H         1 UNK         0.0000 
     37 H37         3.7749   41.4028  -28.7882 H         1 UNK         0.0000 
     38 H38         5.3953   40.9088  -30.6296 H         1 UNK         0.0000 
     39 H39         5.8207   39.8522  -32.8343 H         1 UNK         0.0000 
     40 H40         2.5889   43.2050  -27.8478 H         1 UNK         0.0000 
     41 H41         2.1403   44.1649  -25.6050 H         1 UNK         0.0000 
     42 H42        -0.2679   40.9597  -24.5596 H         1 UNK         0.0000 
     43 H43         0.1311   39.8388  -26.7434 H         1 UNK         0.0000 
     44 H44         3.9044   36.5232  -35.2633 H         1 UNK         0.0000 
@<TRIPOS>BOND
     1    1    2 1    
     2    1   23 1    
     3    1   24 1    
     4    1   25 1    
     5    2    3 1    
     6    2    4 1    
     7    2   26 1    
     8    3   27 1    
     9    3   28 1    
    10    3   29 1    
    11    4    5 1    
    12    4   30 1    
    13    4   31 1    
    14    5    6 1    
    15    5    7 1    
    16    5   32 1    
    17    6   33 1    
    18    6   34 1    
    19    6   44 1    
    20    7   16 ar   
    21    7    8 ar   
    22    8    9 ar   
    23    9   14 ar   
    24    9   10 ar   
    25   10   11 ar   
    26   10   35 1    
    27   11   12 ar   
    28   11   36 1    
    29   12   13 ar   
    30   12   17 1    
    31   13   14 ar   
    32   13   37 1    
    33   14   15 ar   
    34   15   16 ar   
    35   15   38 1    
    36   16   39 1    
    37   17   22 ar   
    38   17   18 ar   
    39   18   19 ar   
    40   18   40 1    
    41   19   20 ar   
    42   19   41 1    
    43   20   21 ar   
    44   21   22 ar   
    45   21   42 1    
    46   22   43 1    
@<TRIPOS>SUBSTRUCTURE
     1 UNK         1 GROUP             0       ****    0 ROOT    
