p38a_3flq
                    3D
 Schrodinger Suite 2021-2.
 47 49  0  0  1  0            999 V2000
   33.7779   39.0930   23.7181 C   0  0  0  0  0  0
   35.0563   37.9124   21.6857 C   0  0  0  0  0  0
   35.8167   37.2065   20.6701 C   0  0  0  0  0  0
   34.1632   37.1810   22.4937 C   0  0  0  0  0  0
   35.6678   35.8778   20.5037 C   0  0  0  0  0  0
   32.2209   38.9325   25.7043 C   0  0  1  0  0  0
   30.8233   38.9288   25.1597 C   0  0  0  0  0  0
   34.2012   38.2568   28.0262 C   0  0  0  0  0  0
   33.9731   35.7885   22.2151 N   0  0  0  0  0  0
   32.7369   37.5255   25.7668 C   0  0  0  0  0  0
   37.3621   36.9406   14.4660 F   0  0  0  0  0  0
   37.0970   36.4498   15.6968 C   0  0  0  0  0  0
   35.8148   36.5891   16.2588 C   0  0  0  0  0  0
   35.5809   36.1701   17.5819 C   0  0  0  0  0  0
   38.1374   35.8655   16.4401 C   0  0  0  0  0  0
   37.9052   35.4420   17.7578 C   0  0  0  0  0  0
   38.9086   34.8645   18.4601 F   0  0  0  0  0  0
   36.6359   35.6173   18.3442 C   0  0  0  0  0  0
   36.4635   35.1858   19.6340 O   0  0  0  0  0  0
   34.7176   35.0959   21.3027 C   0  0  0  0  0  0
   34.6044   33.8784   21.1484 O   0  0  0  0  0  0
   35.1923   39.2868   21.9457 C   0  0  0  0  0  0
   34.5438   39.8762   22.9655 N   0  0  0  0  0  0
   33.5346   37.7995   23.5169 N   0  0  0  0  0  0
   32.9333   35.0919   22.9858 C   0  0  0  0  0  0
   33.0807   39.7280   24.8327 N   0  0  0  0  0  0
   34.3955   37.5299   26.4131 S   0  0  0  0  0  0
   34.8024   36.1332   26.6014 O   0  0  0  0  0  0
   35.1866   38.4596   25.5995 O   0  0  0  0  0  0
   36.5206   37.7914   20.1009 H   0  0  0  0  0  0
   32.2196   39.3639   26.7053 H   0  0  0  0  0  0
   30.1813   38.3350   25.8104 H   0  0  0  0  0  0
   30.4483   39.9513   25.1143 H   0  0  0  0  0  0
   30.8245   38.4975   24.1587 H   0  0  0  0  0  0
   35.1713   38.3094   28.5203 H   0  0  0  0  0  0
   33.7900   39.2612   27.9251 H   0  0  0  0  0  0
   33.5231   37.6449   28.6212 H   0  0  0  0  0  0
   32.0950   36.9316   26.4175 H   0  0  0  0  0  0
   32.7382   37.0942   24.7658 H   0  0  0  0  0  0
   35.0141   37.0244   15.6798 H   0  0  0  0  0  0
   34.5958   36.2779   18.0121 H   0  0  0  0  0  0
   39.1223   35.7721   16.0091 H   0  0  0  0  0  0
   35.8377   39.9090   21.3449 H   0  0  0  0  0  0
   32.6394   34.1282   22.5672 H   0  0  0  0  0  0
   33.2801   34.9253   24.0062 H   0  0  0  0  0  0
   32.0233   35.6910   23.0352 H   0  0  0  0  0  0
   33.1960   40.7419   25.0051 H   0  0  0  0  0  0
  1 23  1  0  0  0
  1 24  2  0  0  0
  1 26  1  0  0  0
  2  3  1  0  0  0
  2  4  2  0  0  0
  2 22  1  0  0  0
  3  5  2  0  0  0
  3 30  1  0  0  0
  4  9  1  0  0  0
  4 24  1  0  0  0
  5 19  1  0  0  0
  5 20  1  0  0  0
  6  7  1  0  0  0
  6 10  1  0  0  0
  6 26  1  0  0  0
  6 31  1  0  0  0
  7 32  1  0  0  0
  7 33  1  0  0  0
  7 34  1  0  0  0
  8 27  1  0  0  0
  8 35  1  0  0  0
  8 36  1  0  0  0
  8 37  1  0  0  0
  9 20  1  0  0  0
  9 25  1  0  0  0
 10 27  1  0  0  0
 10 38  1  0  0  0
 10 39  1  0  0  0
 11 12  1  0  0  0
 12 13  1  0  0  0
 12 15  2  0  0  0
 13 14  2  0  0  0
 13 40  1  0  0  0
 14 18  1  0  0  0
 14 41  1  0  0  0
 15 16  1  0  0  0
 15 42  1  0  0  0
 16 17  1  0  0  0
 16 18  2  0  0  0
 18 19  1  0  0  0
 20 21  2  0  0  0
 22 23  2  0  0  0
 22 43  1  0  0  0
 25 44  1  0  0  0
 25 45  1  0  0  0
 25 46  1  0  0  0
 26 47  1  0  0  0
 27 28  2  0  0  0
 27 29  2  0  0  0
M  END
> <s_m_entry_id>
330

> <s_m_entry_name>
p38_p38a_3flq.1

> <r_user_dG.exp>
-9.93099

> <r_m_Molecular_weight>
424.42936

> <s_m_Source_Path>
C:\Users\yujiethinkpad\Desktop\05A\p38

> <s_m_Source_File>
p38_p38a_3flq.sdf

> <i_m_Source_File_Index>
1

> <s_m_job_name>
align_ligands_8350

> <i_phase_Input_Structure_Number>
4

> <i_phase_Structure_Number>
4

> <r_phase_Similarity_to_Reference>
0.869148141488274

> <i_phase_Reference_Structure>
1

> <s_phase_Alignment_Method>
snapped core

> <s_phase_Alignment_Reason>


> <s_phase_Core_SMARTS>
a1aaaa(a12)aa(a(=A)[a]2)Aa3aaaaa3

> <s_f3d_frozen_atoms>
24 1 23 22 2 4 3 5 20 21 9 19 18 14 13 12 15 16 43 30 21 41 40 11 42 17

> <s_m_subgroup_title>
align_ligands_8350

> <s_m_subgroupid>
align_ligands_8350

> <b_m_subgroup_collapsed>
0

$$$$
