p38a_2t
                    3D
 Schrodinger Suite 2021-2.
 47 50  0  0  1  0            999 V2000
   38.1374   35.8655   16.4401 C   0  0  0  0  0  0
   34.7176   35.0959   21.3027 C   0  0  0  0  0  0
   37.9052   35.4420   17.7578 C   0  0  0  0  0  0
   33.7779   39.0930   23.7181 C   0  0  0  0  0  0
   35.0563   37.9124   21.6857 C   0  0  0  0  0  0
   35.8167   37.2065   20.6701 C   0  0  0  0  0  0
   37.0970   36.4498   15.6968 C   0  0  0  0  0  0
   35.8148   36.5891   16.2588 C   0  0  0  0  0  0
   35.5809   36.1701   17.5819 C   0  0  0  0  0  0
   34.1632   37.1810   22.4937 C   0  0  0  0  0  0
   35.1923   39.2868   21.9457 C   0  0  0  0  0  0
   35.6678   35.8778   20.5037 C   0  0  0  0  0  0
   36.6359   35.6173   18.3442 C   0  0  0  0  0  0
   38.9086   34.8645   18.4601 F   0  0  0  0  0  0
   36.4635   35.1858   19.6340 O   0  0  0  0  0  0
   34.5438   39.8762   22.9655 N   0  0  0  0  0  0
   34.6044   33.8784   21.1484 O   0  0  0  0  0  0
   33.9731   35.7885   22.2151 N   0  0  0  0  0  0
   33.5346   37.7995   23.5169 N   0  0  0  0  0  0
   33.0807   39.7280   24.8327 N   0  0  0  0  0  0
   39.1189   35.7615   16.0061 H   0  0  0  0  0  0
   36.5292   37.7864   20.1047 H   0  0  0  0  0  0
   35.0096   37.0091   15.6742 H   0  0  0  0  0  0
   34.5899   36.2557   18.0028 H   0  0  0  0  0  0
   35.8451   39.9051   21.3493 H   0  0  0  0  0  0
   33.1960   40.7419   25.0051 H   0  0  0  0  0  0
   37.3621   36.9406   14.4660 F   0  0  0  0  0  0
   31.4990   37.2959   23.8959 C   0  0  0  0  0  0
   32.2308   37.4660   25.2411 C   0  0  0  0  0  0
   32.2209   38.9325   25.7043 C   0  0  0  0  0  0
   30.7870   39.4872   25.6615 C   0  0  0  0  0  0
   30.1223   39.2233   24.2968 C   0  0  0  0  0  0
   30.1735   37.8261   23.9926 O   0  0  0  0  0  0
   31.4417   36.2396   23.6296 H   0  0  0  0  0  0
   32.0458   37.7891   23.0893 H   0  0  0  0  0  0
   33.2554   37.1004   25.1584 H   0  0  0  0  0  0
   31.7444   36.8408   25.9918 H   0  0  0  0  0  0
   32.6388   39.0221   26.7089 H   0  0  0  0  0  0
   30.1888   39.0186   26.4448 H   0  0  0  0  0  0
   30.7866   40.5566   25.8772 H   0  0  0  0  0  0
   29.0802   39.5456   24.3171 H   0  0  0  0  0  0
   30.6091   39.8004   23.5076 H   0  0  0  0  0  0
   33.0254   35.0477   23.0425 C   0  0  0  0  0  0
   33.2847   35.1739   24.0937 H   0  0  0  0  0  0
   32.0181   35.4262   22.8688 H   0  0  0  0  0  0
   33.0810   33.5919   22.6851 C   0  0  0  0  0  0
   33.1016   32.4633   22.4314 N   0  0  0  0  0  0
  1  3  1  0  0  0
  1  7  2  0  0  0
  1 21  1  0  0  0
  2 12  1  0  0  0
  2 17  2  0  0  0
  2 18  1  0  0  0
  3 13  2  0  0  0
  3 14  1  0  0  0
  4 16  1  0  0  0
  4 19  2  0  0  0
  4 20  1  0  0  0
  5  6  1  0  0  0
  5 10  2  0  0  0
  5 11  1  0  0  0
  6 12  2  0  0  0
  6 22  1  0  0  0
  7  8  1  0  0  0
  7 27  1  0  0  0
  8  9  2  0  0  0
  8 23  1  0  0  0
  9 13  1  0  0  0
  9 24  1  0  0  0
 10 18  1  0  0  0
 10 19  1  0  0  0
 11 16  2  0  0  0
 11 25  1  0  0  0
 12 15  1  0  0  0
 13 15  1  0  0  0
 18 43  1  0  0  0
 20 26  1  0  0  0
 20 30  1  0  0  0
 28 29  1  0  0  0
 28 33  1  0  0  0
 28 34  1  0  0  0
 28 35  1  0  0  0
 29 30  1  0  0  0
 29 36  1  0  0  0
 29 37  1  0  0  0
 30 31  1  0  0  0
 30 38  1  0  0  0
 31 32  1  0  0  0
 31 39  1  0  0  0
 31 40  1  0  0  0
 32 33  1  0  0  0
 32 41  1  0  0  0
 32 42  1  0  0  0
 43 44  1  0  0  0
 43 45  1  0  0  0
 43 46  1  0  0  0
 46 47  3  0  0  0
M  END
> <s_m_entry_id>
356

> <s_m_entry_name>
p38_p38a_2t.1

> <r_user_dG.exp>
-11.854

> <r_m_Molecular_weight>
413.38699

> <s_m_Source_Path>
C:\Users\yujiethinkpad\Desktop\05A\p38

> <s_m_Source_File>
p38_p38a_2t.sdf

> <i_m_Source_File_Index>
1

> <s_m_job_name>
align_ligands_8350

> <i_phase_Input_Structure_Number>
30

> <i_phase_Structure_Number>
30

> <r_phase_Similarity_to_Reference>
0.827974825206147

> <i_phase_Reference_Structure>
1

> <s_phase_Alignment_Method>
snapped core

> <s_phase_Alignment_Reason>


> <s_phase_Core_SMARTS>
a1aaaa(a12)aa(a(=A)[a]2)Aa3aaaaa3

> <s_f3d_frozen_atoms>
19 4 16 11 5 10 6 12 2 17 18 15 13 9 8 7 1 3 25 22 17 24 23 27 21 14

> <s_m_subgroup_title>
align_ligands_8350

> <s_m_subgroupid>
align_ligands_8350

> <b_m_subgroup_collapsed>
0

$$$$
