p38a_2h
                    3D
 Schrodinger Suite 2021-2.
 46 49  0  0  1  0            999 V2000
   31.0970   38.2897   24.8743 C   0  0  0  0  0  0
   30.0907   39.3452   24.3768 C   0  0  0  0  0  0
   30.5879   40.8162   26.2097 C   0  0  0  0  0  0
   31.6184   39.8324   26.7965 C   0  0  0  0  0  0
   38.1374   35.8655   16.4401 C   0  0  0  0  0  0
   29.5859   40.0966   25.4848 O   0  0  0  0  0  0
   34.7176   35.0959   21.3027 C   0  0  0  0  0  0
   37.9052   35.4420   17.7578 C   0  0  0  0  0  0
   33.7779   39.0930   23.7181 C   0  0  0  0  0  0
   32.2209   38.9326   25.7043 C   0  0  0  0  0  0
   35.0563   37.9124   21.6857 C   0  0  0  0  0  0
   35.8167   37.2065   20.6701 C   0  0  0  0  0  0
   37.0970   36.4498   15.6968 C   0  0  0  0  0  0
   35.8148   36.5891   16.2588 C   0  0  0  0  0  0
   35.5809   36.1701   17.5819 C   0  0  0  0  0  0
   34.1632   37.1810   22.4937 C   0  0  0  0  0  0
   35.1923   39.2868   21.9457 C   0  0  0  0  0  0
   35.6678   35.8778   20.5037 C   0  0  0  0  0  0
   36.6359   35.6173   18.3442 C   0  0  0  0  0  0
   32.9333   35.0919   22.9858 C   0  0  0  0  0  0
   38.9086   34.8645   18.4601 F   0  0  0  0  0  0
   36.4635   35.1858   19.6340 S   0  0  0  0  0  0
   34.5438   39.8762   22.9655 N   0  0  0  0  0  0
   34.6044   33.8784   21.1484 O   0  0  0  0  0  0
   33.9731   35.7885   22.2151 N   0  0  0  0  0  0
   33.5346   37.7995   23.5169 N   0  0  0  0  0  0
   33.0807   39.7280   24.8327 N   0  0  0  0  0  0
   30.5682   37.5528   25.4813 H   0  0  0  0  0  0
   31.5148   37.7429   24.0277 H   0  0  0  0  0  0
   30.5542   40.0124   23.6469 H   0  0  0  0  0  0
   29.2577   38.8598   23.8663 H   0  0  0  0  0  0
   30.1105   41.3831   27.0103 H   0  0  0  0  0  0
   31.0731   41.5476   25.5597 H   0  0  0  0  0  0
   32.4063   40.3809   27.3146 H   0  0  0  0  0  0
   31.1300   39.2150   27.5523 H   0  0  0  0  0  0
   39.1190   35.7615   16.0063 H   0  0  0  0  0  0
   32.8603   38.1660   26.1462 H   0  0  0  0  0  0
   36.5292   37.7864   20.1047 H   0  0  0  0  0  0
   35.0096   37.0090   15.6743 H   0  0  0  0  0  0
   34.5900   36.2556   18.0026 H   0  0  0  0  0  0
   35.8451   39.9051   21.3493 H   0  0  0  0  0  0
   32.0233   35.6910   23.0352 H   0  0  0  0  0  0
   32.6394   34.1282   22.5672 H   0  0  0  0  0  0
   33.2801   34.9253   24.0062 H   0  0  0  0  0  0
   33.1960   40.7419   25.0050 H   0  0  0  0  0  0
   37.2757   36.8027   14.6918 H   0  0  0  0  0  0
  1  2  1  0  0  0
  1 10  1  0  0  0
  1 28  1  0  0  0
  1 29  1  0  0  0
  2  6  1  0  0  0
  2 30  1  0  0  0
  2 31  1  0  0  0
  3  4  1  0  0  0
  3  6  1  0  0  0
  3 32  1  0  0  0
  3 33  1  0  0  0
  4 10  1  0  0  0
  4 34  1  0  0  0
  4 35  1  0  0  0
  5  8  1  0  0  0
  5 13  2  0  0  0
  5 36  1  0  0  0
  7 18  1  0  0  0
  7 24  2  0  0  0
  7 25  1  0  0  0
  8 19  2  0  0  0
  8 21  1  0  0  0
  9 23  1  0  0  0
  9 26  2  0  0  0
  9 27  1  0  0  0
 10 27  1  0  0  0
 10 37  1  0  0  0
 11 12  1  0  0  0
 11 16  2  0  0  0
 11 17  1  0  0  0
 12 18  2  0  0  0
 12 38  1  0  0  0
 13 14  1  0  0  0
 13 46  1  0  0  0
 14 15  2  0  0  0
 14 39  1  0  0  0
 15 19  1  0  0  0
 15 40  1  0  0  0
 16 25  1  0  0  0
 16 26  1  0  0  0
 17 23  2  0  0  0
 17 41  1  0  0  0
 18 22  1  0  0  0
 19 22  1  0  0  0
 20 25  1  0  0  0
 20 42  1  0  0  0
 20 43  1  0  0  0
 20 44  1  0  0  0
 27 45  1  0  0  0
M  END
> <s_m_entry_id>
344

> <s_m_entry_name>
p38_p38a_2h.1

> <r_user_dG.exp>
-9.477

> <r_m_Molecular_weight>
386.45128

> <s_m_Source_Path>
C:\Users\yujiethinkpad\Desktop\05A\p38

> <s_m_Source_File>
p38_p38a_2h.sdf

> <i_m_Source_File_Index>
1

> <s_m_job_name>
align_ligands_8350

> <i_phase_Input_Structure_Number>
18

> <i_phase_Structure_Number>
18

> <r_phase_Similarity_to_Reference>
0.83606603613866

> <i_phase_Reference_Structure>
1

> <s_phase_Alignment_Method>
snapped core

> <s_phase_Alignment_Reason>


> <s_phase_Core_SMARTS>
a1aaaa(a12)aa(a(=A)[a]2)Aa3aaaaa3

> <s_f3d_frozen_atoms>
26 9 23 17 11 16 12 18 7 24 25 22 19 15 14 13 5 8 41 38 24 40 39 46 36 21

> <s_m_subgroup_title>
align_ligands_8350

> <s_m_subgroupid>
align_ligands_8350

> <b_m_subgroup_collapsed>
0

$$$$
