p38a_2k
                    3D
 Schrodinger Suite 2021-2.
 43 46  0  0  1  0            999 V2000
   38.1374   35.8655   16.4401 C   0  0  0  0  0  0
   34.7176   35.0959   21.3027 C   0  0  0  0  0  0
   37.9052   35.4420   17.7578 C   0  0  0  0  0  0
   33.7779   39.0930   23.7181 C   0  0  0  0  0  0
   35.0563   37.9124   21.6857 C   0  0  0  0  0  0
   35.8167   37.2065   20.6701 C   0  0  0  0  0  0
   37.0970   36.4498   15.6968 C   0  0  0  0  0  0
   35.8148   36.5891   16.2588 C   0  0  0  0  0  0
   35.5809   36.1701   17.5819 C   0  0  0  0  0  0
   34.1632   37.1810   22.4937 C   0  0  0  0  0  0
   35.1923   39.2868   21.9457 C   0  0  0  0  0  0
   35.6678   35.8778   20.5037 C   0  0  0  0  0  0
   36.6359   35.6173   18.3442 C   0  0  0  0  0  0
   33.2199   35.3147   22.6931 H   0  0  0  0  0  0
   38.9086   34.8645   18.4601 F   0  0  0  0  0  0
   36.4635   35.1858   19.6340 O   0  0  0  0  0  0
   34.5438   39.8762   22.9655 N   0  0  0  0  0  0
   34.6044   33.8784   21.1484 O   0  0  0  0  0  0
   33.9731   35.7885   22.2151 N   0  0  0  0  0  0
   33.5346   37.7995   23.5169 N   0  0  0  0  0  0
   33.0811   39.7280   24.8330 N   0  0  0  0  0  0
   39.1189   35.7615   16.0061 H   0  0  0  0  0  0
   36.5292   37.7864   20.1047 H   0  0  0  0  0  0
   35.0096   37.0091   15.6742 H   0  0  0  0  0  0
   34.5899   36.2557   18.0028 H   0  0  0  0  0  0
   35.8451   39.9051   21.3493 H   0  0  0  0  0  0
   33.1968   40.7419   25.0054 H   0  0  0  0  0  0
   37.3621   36.9406   14.4660 F   0  0  0  0  0  0
   31.4985   37.2966   23.8963 C   0  0  0  0  0  0
   32.2307   37.4662   25.2413 C   0  0  0  0  0  0
   32.2213   38.9327   25.7047 C   0  0  0  0  0  0
   30.7876   39.4878   25.6622 C   0  0  0  0  0  0
   30.1225   39.2242   24.2977 C   0  0  0  0  0  0
   30.1733   37.8271   23.9933 O   0  0  0  0  0  0
   31.4409   36.2402   23.6298 H   0  0  0  0  0  0
   32.0453   37.7896   23.0895 H   0  0  0  0  0  0
   33.2552   37.1004   25.1583 H   0  0  0  0  0  0
   31.7444   36.8411   25.9920 H   0  0  0  0  0  0
   32.6395   39.0220   26.7092 H   0  0  0  0  0  0
   30.1895   39.0193   26.4456 H   0  0  0  0  0  0
   30.7875   40.5572   25.8781 H   0  0  0  0  0  0
   29.0805   39.5468   24.3183 H   0  0  0  0  0  0
   30.6093   39.8013   23.5085 H   0  0  0  0  0  0
  1  3  1  0  0  0
  1  7  2  0  0  0
  1 22  1  0  0  0
  2 12  1  0  0  0
  2 18  2  0  0  0
  2 19  1  0  0  0
  3 13  2  0  0  0
  3 15  1  0  0  0
  4 17  1  0  0  0
  4 20  2  0  0  0
  4 21  1  0  0  0
  5  6  1  0  0  0
  5 10  2  0  0  0
  5 11  1  0  0  0
  6 12  2  0  0  0
  6 23  1  0  0  0
  7  8  1  0  0  0
  7 28  1  0  0  0
  8  9  2  0  0  0
  8 24  1  0  0  0
  9 13  1  0  0  0
  9 25  1  0  0  0
 10 19  1  0  0  0
 10 20  1  0  0  0
 11 17  2  0  0  0
 11 26  1  0  0  0
 12 16  1  0  0  0
 13 16  1  0  0  0
 14 19  1  0  0  0
 21 27  1  0  0  0
 21 31  1  0  0  0
 29 30  1  0  0  0
 29 34  1  0  0  0
 29 35  1  0  0  0
 29 36  1  0  0  0
 30 31  1  0  0  0
 30 37  1  0  0  0
 30 38  1  0  0  0
 31 32  1  0  0  0
 31 39  1  0  0  0
 32 33  1  0  0  0
 32 40  1  0  0  0
 32 41  1  0  0  0
 33 34  1  0  0  0
 33 42  1  0  0  0
 33 43  1  0  0  0
M  END
> <s_m_entry_id>
347

> <s_m_entry_name>
p38_p38a_2k.1

> <r_user_dG.exp>
-10.553

> <r_m_Molecular_weight>
374.35002

> <s_m_Source_Path>
C:\Users\yujiethinkpad\Desktop\05A\p38

> <s_m_Source_File>
p38_p38a_2k.sdf

> <i_m_Source_File_Index>
1

> <s_m_job_name>
align_ligands_8350

> <i_phase_Input_Structure_Number>
21

> <i_phase_Structure_Number>
21

> <r_phase_Similarity_to_Reference>
0.869076705895069

> <i_phase_Reference_Structure>
1

> <s_phase_Alignment_Method>
snapped core

> <s_phase_Alignment_Reason>


> <s_phase_Core_SMARTS>
a1aaaa(a12)aa(a(=A)[a]2)Aa3aaaaa3

> <s_f3d_frozen_atoms>
20 4 17 11 5 10 6 12 2 18 19 16 13 9 8 7 1 3 26 23 18 14 25 24 28 22 15

> <s_m_subgroup_title>
align_ligands_8350

> <s_m_subgroupid>
align_ligands_8350

> <b_m_subgroup_collapsed>
0

$$$$
