p38a_3flz
                    3D
 Schrodinger Suite 2021-2.
 46 49  0  0  1  0            999 V2000
   36.4635   35.1858   19.6340 O   0  0  0  0  0  0
   35.8167   37.2065   20.6701 C   0  0  0  0  0  0
   34.1632   37.1810   22.4937 C   0  0  0  0  0  0
   35.0563   37.9124   21.6857 C   0  0  0  0  0  0
   35.1923   39.2868   21.9457 C   0  0  0  0  0  0
   33.7779   39.0930   23.7181 C   0  0  0  0  0  0
   35.6678   35.8778   20.5037 C   0  0  0  0  0  0
   36.6359   35.6173   18.3442 C   0  0  0  0  0  0
   32.9333   35.0919   22.9858 C   0  0  0  0  0  0
   30.7733   38.9324   25.1854 C   0  0  0  0  0  0
   35.5809   36.1701   17.5819 C   0  0  0  0  0  0
   37.0970   36.4498   15.6968 C   0  0  0  0  0  0
   35.8148   36.5891   16.2588 C   0  0  0  0  0  0
   38.1374   35.8655   16.4401 C   0  0  0  0  0  0
   34.6044   33.8784   21.1484 O   0  0  0  0  0  0
   34.7176   35.0959   21.3027 C   0  0  0  0  0  0
   37.9052   35.4420   17.7578 C   0  0  0  0  0  0
   34.5438   39.8762   22.9655 N   0  0  0  0  0  0
   33.9731   35.7885   22.2151 N   0  0  0  0  0  0
   33.5346   37.7995   23.5169 N   0  0  0  0  0  0
   33.0808   39.7279   24.8328 N   0  0  0  0  0  0
   32.2210   38.9325   25.7044 C   0  0  0  0  0  0
   32.7414   37.4890   25.8095 C   0  0  0  0  0  0
   31.7615   36.5933   26.5916 C   0  0  0  0  0  0
   30.4614   36.6602   25.9981 O   0  0  0  0  0  0
   29.8849   37.9697   25.9965 C   0  0  0  0  0  0
   36.5116   37.7905   20.0879 H   0  0  0  0  0  0
   35.8456   39.9053   21.3505 H   0  0  0  0  0  0
   32.6394   34.1282   22.5672 H   0  0  0  0  0  0
   33.2801   34.9253   24.0062 H   0  0  0  0  0  0
   32.0233   35.6910   23.0352 H   0  0  0  0  0  0
   30.3581   39.9409   25.2169 H   0  0  0  0  0  0
   30.7595   38.6305   24.1367 H   0  0  0  0  0  0
   34.5962   36.2617   18.0126 H   0  0  0  0  0  0
   37.2858   36.7975   14.6928 H   0  0  0  0  0  0
   35.0113   37.0180   15.6777 H   0  0  0  0  0  0
   39.1157   35.7498   15.9996 H   0  0  0  0  0  0
   38.7001   34.9783   18.3230 H   0  0  0  0  0  0
   33.1962   40.7418   25.0053 H   0  0  0  0  0  0
   32.2586   39.4085   26.6868 H   0  0  0  0  0  0
   32.8800   37.0753   24.8092 H   0  0  0  0  0  0
   33.7235   37.4726   26.2842 H   0  0  0  0  0  0
   32.1061   35.5583   26.5793 H   0  0  0  0  0  0
   31.7140   36.8910   27.6414 H   0  0  0  0  0  0
   29.7555   38.3274   27.0203 H   0  0  0  0  0  0
   28.8870   37.9193   25.5585 H   0  0  0  0  0  0
  1  7  1  0  0  0
  1  8  1  0  0  0
  2  4  1  0  0  0
  2  7  2  0  0  0
  2 27  1  0  0  0
  3  4  2  0  0  0
  3 19  1  0  0  0
  3 20  1  0  0  0
  4  5  1  0  0  0
  5 18  2  0  0  0
  5 28  1  0  0  0
  6 18  1  0  0  0
  6 20  2  0  0  0
  6 21  1  0  0  0
  7 16  1  0  0  0
  8 11  1  0  0  0
  8 17  2  0  0  0
  9 19  1  0  0  0
  9 29  1  0  0  0
  9 30  1  0  0  0
  9 31  1  0  0  0
 10 22  1  0  0  0
 10 26  1  0  0  0
 10 32  1  0  0  0
 10 33  1  0  0  0
 11 13  2  0  0  0
 11 34  1  0  0  0
 12 13  1  0  0  0
 12 14  2  0  0  0
 12 35  1  0  0  0
 13 36  1  0  0  0
 14 17  1  0  0  0
 14 37  1  0  0  0
 15 16  2  0  0  0
 16 19  1  0  0  0
 17 38  1  0  0  0
 21 22  1  0  0  0
 21 39  1  0  0  0
 22 23  1  0  0  0
 22 40  1  0  0  0
 23 24  1  0  0  0
 23 41  1  0  0  0
 23 42  1  0  0  0
 24 25  1  0  0  0
 24 43  1  0  0  0
 24 44  1  0  0  0
 25 26  1  0  0  0
 26 45  1  0  0  0
 26 46  1  0  0  0
M  END
> <s_m_entry_id>
332

> <s_m_entry_name>
p38_p38a_3flz.1

> <r_user_dG.exp>
-9.4871

> <r_m_Molecular_weight>
352.39625

> <s_m_Source_Path>
C:\Users\yujiethinkpad\Desktop\05A\p38

> <s_m_Source_File>
p38_p38a_3flz.sdf

> <i_m_Source_File_Index>
1

> <s_m_job_name>
align_ligands_8350

> <i_phase_Input_Structure_Number>
6

> <i_phase_Structure_Number>
6

> <r_phase_Similarity_to_Reference>
0.850746212537683

> <i_phase_Reference_Structure>
1

> <s_phase_Alignment_Method>
snapped core

> <s_phase_Alignment_Reason>


> <s_phase_Core_SMARTS>
a1aaaa(a12)aa(a(=A)[a]2)Aa3aaaaa3

> <s_f3d_frozen_atoms>
20 6 18 5 4 3 2 7 16 15 19 1 8 11 13 12 14 17 28 27 15 34 36 35 37 38

> <s_m_subgroup_title>
align_ligands_8350

> <s_m_subgroupid>
align_ligands_8350

> <b_m_subgroup_collapsed>
0

$$$$
