p38a_2f
                    3D
 Schrodinger Suite 2021-2.
 46 49  0  0  1  0            999 V2000
   31.0970   38.2897   24.8744 C   0  0  0  0  0  0
   30.0908   39.3452   24.3771 C   0  0  0  0  0  0
   30.5881   40.8161   26.2100 C   0  0  0  0  0  0
   31.6186   39.8322   26.7967 C   0  0  0  0  0  0
   38.1374   35.8655   16.4401 C   0  0  0  0  0  0
   29.5861   40.0966   25.4852 O   0  0  0  0  0  0
   34.7176   35.0959   21.3027 C   0  0  0  0  0  0
   37.9052   35.4420   17.7578 C   0  0  0  0  0  0
   33.7779   39.0930   23.7181 C   0  0  0  0  0  0
   32.2210   38.9325   25.7044 C   0  0  0  0  0  0
   35.0563   37.9124   21.6857 C   0  0  0  0  0  0
   35.8167   37.2065   20.6701 C   0  0  0  0  0  0
   37.0970   36.4498   15.6968 C   0  0  0  0  0  0
   35.8148   36.5891   16.2588 C   0  0  0  0  0  0
   35.5809   36.1701   17.5819 C   0  0  0  0  0  0
   34.1632   37.1810   22.4937 C   0  0  0  0  0  0
   35.1923   39.2868   21.9457 C   0  0  0  0  0  0
   35.6678   35.8778   20.5037 C   0  0  0  0  0  0
   36.6359   35.6173   18.3442 C   0  0  0  0  0  0
   32.9333   35.0919   22.9858 C   0  0  0  0  0  0
   38.7042   34.9881   18.3254 H   0  0  0  0  0  0
   36.4635   35.1858   19.6340 O   0  0  0  0  0  0
   34.5438   39.8762   22.9655 N   0  0  0  0  0  0
   34.6044   33.8784   21.1484 O   0  0  0  0  0  0
   33.9731   35.7885   22.2151 N   0  0  0  0  0  0
   33.5346   37.7995   23.5169 N   0  0  0  0  0  0
   33.0808   39.7279   24.8328 N   0  0  0  0  0  0
   30.5682   37.5528   25.4813 H   0  0  0  0  0  0
   31.5147   37.7430   24.0277 H   0  0  0  0  0  0
   30.5543   40.0126   23.6472 H   0  0  0  0  0  0
   29.2577   38.8599   23.8665 H   0  0  0  0  0  0
   30.1108   41.3829   27.0107 H   0  0  0  0  0  0
   31.0733   41.5476   25.5601 H   0  0  0  0  0  0
   32.4066   40.3806   27.3148 H   0  0  0  0  0  0
   31.1302   39.2148   27.5525 H   0  0  0  0  0  0
   39.3509   35.7369   15.9035 F   0  0  0  0  0  0
   32.8605   38.1658   26.1461 H   0  0  0  0  0  0
   36.5292   37.7864   20.1047 H   0  0  0  0  0  0
   35.0096   37.0091   15.6742 H   0  0  0  0  0  0
   34.5899   36.2557   18.0028 H   0  0  0  0  0  0
   35.8451   39.9051   21.3493 H   0  0  0  0  0  0
   32.0233   35.6910   23.0352 H   0  0  0  0  0  0
   32.6394   34.1282   22.5672 H   0  0  0  0  0  0
   33.2801   34.9253   24.0062 H   0  0  0  0  0  0
   33.1962   40.7418   25.0052 H   0  0  0  0  0  0
   37.2756   36.8025   14.6917 H   0  0  0  0  0  0
  1  2  1  0  0  0
  1 10  1  0  0  0
  1 28  1  0  0  0
  1 29  1  0  0  0
  2  6  1  0  0  0
  2 30  1  0  0  0
  2 31  1  0  0  0
  3  4  1  0  0  0
  3  6  1  0  0  0
  3 32  1  0  0  0
  3 33  1  0  0  0
  4 10  1  0  0  0
  4 34  1  0  0  0
  4 35  1  0  0  0
  5  8  1  0  0  0
  5 13  2  0  0  0
  5 36  1  0  0  0
  7 18  1  0  0  0
  7 24  2  0  0  0
  7 25  1  0  0  0
  8 19  2  0  0  0
  8 21  1  0  0  0
  9 23  1  0  0  0
  9 26  2  0  0  0
  9 27  1  0  0  0
 10 27  1  0  0  0
 10 37  1  0  0  0
 11 12  1  0  0  0
 11 16  2  0  0  0
 11 17  1  0  0  0
 12 18  2  0  0  0
 12 38  1  0  0  0
 13 14  1  0  0  0
 13 46  1  0  0  0
 14 15  2  0  0  0
 14 39  1  0  0  0
 15 19  1  0  0  0
 15 40  1  0  0  0
 16 25  1  0  0  0
 16 26  1  0  0  0
 17 23  2  0  0  0
 17 41  1  0  0  0
 18 22  1  0  0  0
 19 22  1  0  0  0
 20 25  1  0  0  0
 20 42  1  0  0  0
 20 43  1  0  0  0
 20 44  1  0  0  0
 27 45  1  0  0  0
M  END
> <s_m_entry_id>
340

> <s_m_entry_name>
p38_p38a_2f.1

> <r_user_dG.exp>
-8.484

> <r_m_Molecular_weight>
370.38668

> <s_m_Source_Path>
C:\Users\yujiethinkpad\Desktop\05A\p38

> <s_m_Source_File>
p38_p38a_2f.sdf

> <i_m_Source_File_Index>
1

> <s_m_job_name>
align_ligands_8350

> <i_phase_Input_Structure_Number>
14

> <i_phase_Structure_Number>
14

> <r_phase_Similarity_to_Reference>
0.838500762076397

> <i_phase_Reference_Structure>
1

> <s_phase_Alignment_Method>
snapped core

> <s_phase_Alignment_Reason>


> <s_phase_Core_SMARTS>
a1aaaa(a12)aa(a(=A)[a]2)Aa3aaaaa3

> <s_f3d_frozen_atoms>
26 9 23 17 11 16 12 18 7 24 25 22 19 15 14 13 5 8 41 38 24 40 39 46 36 21

> <s_m_subgroup_title>
align_ligands_8350

> <s_m_subgroupid>
align_ligands_8350

> <b_m_subgroup_collapsed>
0

$$$$
