p38a_3flw
                    3D
 Schrodinger Suite 2021-2.
 49 51  0  0  1  0            999 V2000
   38.1374   35.8655   16.4401 C   0  0  0  0  0  0
   37.0970   36.4498   15.6968 C   0  0  0  0  0  0
   31.1205   38.3153   24.8930 C   0  0  0  0  0  0
   30.3101   39.3979   24.2440 C   0  0  0  0  0  0
   33.0313   37.8499   26.3533 C   0  0  0  0  0  0
   32.9333   35.0919   22.9858 C   0  0  0  0  0  0
   38.9086   34.8645   18.4601 F   0  0  0  0  0  0
   37.9052   35.4420   17.7578 C   0  0  0  0  0  0
   37.3621   36.9406   14.4660 F   0  0  0  0  0  0
   35.8148   36.5891   16.2588 C   0  0  0  0  0  0
   35.5809   36.1701   17.5819 C   0  0  0  0  0  0
   36.6359   35.6173   18.3442 C   0  0  0  0  0  0
   36.4635   35.1858   19.6340 O   0  0  0  0  0  0
   35.6678   35.8778   20.5037 C   0  0  0  0  0  0
   35.8167   37.2065   20.6701 C   0  0  0  0  0  0
   35.0563   37.9124   21.6857 C   0  0  0  0  0  0
   35.1923   39.2868   21.9457 C   0  0  0  0  0  0
   34.5438   39.8762   22.9655 N   0  0  0  0  0  0
   34.7176   35.0959   21.3027 C   0  0  0  0  0  0
   34.6044   33.8784   21.1484 O   0  0  0  0  0  0
   33.9731   35.7885   22.2151 N   0  0  0  0  0  0
   34.1632   37.1810   22.4937 C   0  0  0  0  0  0
   33.5346   37.7995   23.5169 N   0  0  0  0  0  0
   33.7779   39.0930   23.7181 C   0  0  0  0  0  0
   33.0807   39.7280   24.8327 N   0  0  0  0  0  0
   32.2209   38.9325   25.7043 C   0  0  0  0  0  0
   32.1480   37.0327   27.2488 C   0  0  0  0  0  0
   31.1356   36.4648   26.5024 O   0  0  0  0  0  0
   29.2978   38.8300   23.4977 O   0  0  0  0  0  0
   39.1212   35.7780   16.0084 H   0  0  0  0  0  0
   30.4786   37.7214   25.5437 H   0  0  0  0  0  0
   31.5517   37.6739   24.1244 H   0  0  0  0  0  0
   29.8789   40.0393   25.0127 H   0  0  0  0  0  0
   30.9520   39.9917   23.5933 H   0  0  0  0  0  0
   33.4625   37.2085   25.5847 H   0  0  0  0  0  0
   33.8309   38.2985   26.9428 H   0  0  0  0  0  0
   32.0233   35.6910   23.0352 H   0  0  0  0  0  0
   32.6394   34.1282   22.5672 H   0  0  0  0  0  0
   33.2801   34.9253   24.0062 H   0  0  0  0  0  0
   35.0151   37.0280   15.6818 H   0  0  0  0  0  0
   34.5985   36.2762   18.0143 H   0  0  0  0  0  0
   36.5379   37.7781   20.1092 H   0  0  0  0  0  0
   35.8504   39.9044   21.3551 H   0  0  0  0  0  0
   33.1960   40.7419   25.0051 H   0  0  0  0  0  0
   31.7897   39.5739   26.4729 H   0  0  0  0  0  0
   32.7369   36.2460   27.7204 H   0  0  0  0  0  0
   31.7168   37.6741   28.0174 H   0  0  0  0  0  0
   30.4945   35.8991   27.0210 H   0  0  0  0  0  0
   28.7035   39.4817   23.0265 H   0  0  0  0  0  0
  1  2  1  0  0  0
  1  8  2  0  0  0
  1 30  1  0  0  0
  2  9  1  0  0  0
  2 10  2  0  0  0
  3  4  1  0  0  0
  3 26  1  0  0  0
  3 31  1  0  0  0
  3 32  1  0  0  0
  4 29  1  0  0  0
  4 33  1  0  0  0
  4 34  1  0  0  0
  5 26  1  0  0  0
  5 27  1  0  0  0
  5 35  1  0  0  0
  5 36  1  0  0  0
  6 21  1  0  0  0
  6 37  1  0  0  0
  6 38  1  0  0  0
  6 39  1  0  0  0
  7  8  1  0  0  0
  8 12  1  0  0  0
 10 11  1  0  0  0
 10 40  1  0  0  0
 11 12  2  0  0  0
 11 41  1  0  0  0
 12 13  1  0  0  0
 13 14  1  0  0  0
 14 15  2  0  0  0
 14 19  1  0  0  0
 15 16  1  0  0  0
 15 42  1  0  0  0
 16 17  1  0  0  0
 16 22  2  0  0  0
 17 18  2  0  0  0
 17 43  1  0  0  0
 18 24  1  0  0  0
 19 20  2  0  0  0
 19 21  1  0  0  0
 21 22  1  0  0  0
 22 23  1  0  0  0
 23 24  2  0  0  0
 24 25  1  0  0  0
 25 26  1  0  0  0
 25 44  1  0  0  0
 26 45  1  0  0  0
 27 28  1  0  0  0
 27 46  1  0  0  0
 27 47  1  0  0  0
 28 48  1  0  0  0
 29 49  1  0  0  0
M  END
> <s_m_entry_id>
331

> <s_m_entry_name>
p38_p38a_3flw.1

> <r_user_dG.exp>
-10.683

> <r_m_Molecular_weight>
406.39245

> <s_m_Source_Path>
C:\Users\yujiethinkpad\Desktop\05A\p38

> <s_m_Source_File>
p38_p38a_3flw.sdf

> <i_m_Source_File_Index>
1

> <s_m_job_name>
align_ligands_8350

> <i_phase_Input_Structure_Number>
5

> <i_phase_Structure_Number>
5

> <r_phase_Similarity_to_Reference>
0.862508732386775

> <i_phase_Reference_Structure>
1

> <s_phase_Alignment_Method>
snapped core

> <s_phase_Alignment_Reason>


> <s_phase_Core_SMARTS>
a1aaaa(a12)aa(a(=A)[a]2)Aa3aaaaa3

> <s_f3d_frozen_atoms>
23 24 18 17 16 22 15 14 19 20 21 13 12 11 10 2 1 8 43 42 20 41 40 9 30 7

> <s_m_subgroup_title>
align_ligands_8350

> <s_m_subgroupid>
align_ligands_8350

> <b_m_subgroup_collapsed>
0

$$$$
