p38a_2c
                    3D
 Schrodinger Suite 2021-2.
 45 48  0  0  1  0            999 V2000
   32.7414   37.4891   25.8096 C   0  0  0  0  0  0
   31.7615   36.5936   26.5918 C   0  0  0  0  0  0
   29.8850   37.9704   25.9970 C   0  0  0  0  0  0
   30.7735   38.9330   25.1858 C   0  0  0  0  0  0
   30.4612   36.6608   25.9985 O   0  0  0  0  0  0
   34.7176   35.0959   21.3027 C   0  0  0  0  0  0
   33.7779   39.0930   23.7181 C   0  0  0  0  0  0
   32.2213   38.9327   25.7046 C   0  0  0  0  0  0
   35.0563   37.9124   21.6857 C   0  0  0  0  0  0
   35.8167   37.2065   20.6701 C   0  0  0  0  0  0
   34.1632   37.1810   22.4937 C   0  0  0  0  0  0
   35.1923   39.2868   21.9457 C   0  0  0  0  0  0
   32.9333   35.0919   22.9858 C   0  0  0  0  0  0
   34.5438   39.8762   22.9655 N   0  0  0  0  0  0
   34.6044   33.8784   21.1484 O   0  0  0  0  0  0
   33.9731   35.7885   22.2151 N   0  0  0  0  0  0
   33.5346   37.7995   23.5169 N   0  0  0  0  0  0
   33.0811   39.7280   24.8330 N   0  0  0  0  0  0
   33.7236   37.4725   26.2841 H   0  0  0  0  0  0
   32.8798   37.0754   24.8093 H   0  0  0  0  0  0
   32.1059   35.5585   26.5795 H   0  0  0  0  0  0
   31.7142   36.8913   27.6416 H   0  0  0  0  0  0
   29.7558   38.3280   27.0209 H   0  0  0  0  0  0
   28.8870   37.9201   25.5592 H   0  0  0  0  0  0
   30.7595   38.6311   24.1372 H   0  0  0  0  0  0
   30.3585   39.9414   25.2175 H   0  0  0  0  0  0
   32.2591   39.4087   26.6870 H   0  0  0  0  0  0
   36.5316   37.7857   20.1071 H   0  0  0  0  0  0
   35.8451   39.9051   21.3493 H   0  0  0  0  0  0
   32.0233   35.6910   23.0352 H   0  0  0  0  0  0
   32.6394   34.1282   22.5672 H   0  0  0  0  0  0
   33.2801   34.9253   24.0062 H   0  0  0  0  0  0
   33.1967   40.7419   25.0054 H   0  0  0  0  0  0
   35.6678   35.8778   20.5037 C   0  0  0  0  0  0
   38.0201   33.8232   17.5848 C   0  0  0  0  0  0
   37.9533   33.3340   18.8863 C   0  0  0  0  0  0
   37.1859   34.0079   19.8303 C   0  0  0  0  0  0
   36.4916   35.1611   19.4752 C   0  0  0  0  0  0
   36.5570   35.6522   18.1743 C   0  0  0  0  0  0
   37.3251   34.9772   17.2304 C   0  0  0  0  0  0
   38.6151   33.3037   16.8459 H   0  0  0  0  0  0
   38.4920   32.4388   19.1627 H   0  0  0  0  0  0
   37.0942   33.4124   21.4474 Cl  0  0  0  0  0  0
   36.0164   36.5484   17.9015 H   0  0  0  0  0  0
   37.3826   35.3506   16.2163 H   0  0  0  0  0  0
  1  2  1  0  0  0
  1  8  1  0  0  0
  1 19  1  0  0  0
  1 20  1  0  0  0
  2  5  1  0  0  0
  2 21  1  0  0  0
  2 22  1  0  0  0
  3  4  1  0  0  0
  3  5  1  0  0  0
  3 23  1  0  0  0
  3 24  1  0  0  0
  4  8  1  0  0  0
  4 25  1  0  0  0
  4 26  1  0  0  0
  6 15  2  0  0  0
  6 16  1  0  0  0
  6 34  1  0  0  0
  7 14  1  0  0  0
  7 17  2  0  0  0
  7 18  1  0  0  0
  8 18  1  0  0  0
  8 27  1  0  0  0
  9 10  1  0  0  0
  9 11  2  0  0  0
  9 12  1  0  0  0
 10 28  1  0  0  0
 10 34  2  0  0  0
 11 16  1  0  0  0
 11 17  1  0  0  0
 12 14  2  0  0  0
 12 29  1  0  0  0
 13 16  1  0  0  0
 13 30  1  0  0  0
 13 31  1  0  0  0
 13 32  1  0  0  0
 18 33  1  0  0  0
 34 38  1  0  0  0
 35 36  2  0  0  0
 35 40  1  0  0  0
 35 41  1  0  0  0
 36 37  1  0  0  0
 36 42  1  0  0  0
 37 38  2  0  0  0
 37 43  1  0  0  0
 38 39  1  0  0  0
 39 40  2  0  0  0
 39 44  1  0  0  0
 40 45  1  0  0  0
M  END
> <s_m_entry_id>
337

> <s_m_entry_name>
p38_p38a_2c.1

> <r_user_dG.exp>
-10.462

> <r_m_Molecular_weight>
370.84188

> <s_m_Source_Path>
C:\Users\yujiethinkpad\Desktop\05A\p38

> <s_m_Source_File>
p38_p38a_2c.sdf

> <i_m_Source_File_Index>
1

> <s_m_job_name>
align_ligands_8350

> <i_phase_Input_Structure_Number>
11

> <i_phase_Structure_Number>
11

> <r_phase_Similarity_to_Reference>
0.674481107521015

> <i_phase_Reference_Structure>
1

> <s_phase_Alignment_Method>
snapped core

> <s_phase_Alignment_Reason>


> <s_phase_Core_SMARTS>
a1aaaa(a12)aaa(=A)[a]2

> <s_f3d_frozen_atoms>
17 7 14 12 9 11 10 34 6 15 16 29 28 15

> <s_m_subgroup_title>
align_ligands_8350

> <s_m_subgroupid>
align_ligands_8350

> <b_m_subgroup_collapsed>
0

$$$$
