p38a_2j
                    3D
 Schrodinger Suite 2021-2.
 48 51  0  0  1  0            999 V2000
   32.7414   37.4890   25.8095 C   0  0  0  0  0  0
   31.7615   36.5933   26.5916 C   0  0  0  0  0  0
   29.8849   37.9697   25.9965 C   0  0  0  0  0  0
   30.7733   38.9324   25.1854 C   0  0  0  0  0  0
   38.1374   35.8655   16.4401 C   0  0  0  0  0  0
   30.4614   36.6602   25.9981 O   0  0  0  0  0  0
   34.7176   35.0959   21.3027 C   0  0  0  0  0  0
   37.9052   35.4420   17.7578 C   0  0  0  0  0  0
   33.7779   39.0930   23.7181 C   0  0  0  0  0  0
   32.2210   38.9325   25.7044 C   0  0  0  0  0  0
   35.0563   37.9124   21.6857 C   0  0  0  0  0  0
   35.8167   37.2065   20.6701 C   0  0  0  0  0  0
   35.8148   36.5891   16.2588 C   0  0  0  0  0  0
   35.5809   36.1701   17.5819 C   0  0  0  0  0  0
   34.1632   37.1810   22.4937 C   0  0  0  0  0  0
   35.1923   39.2868   21.9457 C   0  0  0  0  0  0
   35.6678   35.8778   20.5037 C   0  0  0  0  0  0
   36.6359   35.6173   18.3442 C   0  0  0  0  0  0
   32.9333   35.0919   22.9858 C   0  0  0  0  0  0
   38.9086   34.8645   18.4601 F   0  0  0  0  0  0
   36.4635   35.1858   19.6340 C   0  0  0  0  0  0
   34.5438   39.8762   22.9655 N   0  0  0  0  0  0
   34.6044   33.8784   21.1484 O   0  0  0  0  0  0
   33.9731   35.7885   22.2151 N   0  0  0  0  0  0
   33.5346   37.7995   23.5169 N   0  0  0  0  0  0
   33.0808   39.7279   24.8328 N   0  0  0  0  0  0
   33.7235   37.4725   26.2842 H   0  0  0  0  0  0
   32.8800   37.0752   24.8092 H   0  0  0  0  0  0
   32.1061   35.5583   26.5793 H   0  0  0  0  0  0
   31.7140   36.8909   27.6414 H   0  0  0  0  0  0
   29.7555   38.3274   27.0203 H   0  0  0  0  0  0
   28.8870   37.9192   25.5585 H   0  0  0  0  0  0
   30.7595   38.6305   24.1367 H   0  0  0  0  0  0
   30.3581   39.9408   25.2170 H   0  0  0  0  0  0
   39.1192   35.7625   16.0066 H   0  0  0  0  0  0
   32.2586   39.4084   26.6868 H   0  0  0  0  0  0
   36.5292   37.7864   20.1047 H   0  0  0  0  0  0
   35.0090   37.0091   15.6752 H   0  0  0  0  0  0
   34.5900   36.2556   18.0026 H   0  0  0  0  0  0
   35.8451   39.9051   21.3493 H   0  0  0  0  0  0
   32.0233   35.6910   23.0352 H   0  0  0  0  0  0
   32.6394   34.1282   22.5672 H   0  0  0  0  0  0
   33.2801   34.9253   24.0062 H   0  0  0  0  0  0
   33.1962   40.7418   25.0053 H   0  0  0  0  0  0
   37.4797   35.1427   20.0262 H   0  0  0  0  0  0
   36.0776   34.1735   19.5145 H   0  0  0  0  0  0
   37.0970   36.4498   15.6968 C   0  0  0  0  0  0
   37.3621   36.9406   14.4660 F   0  0  0  0  0  0
  1  2  1  0  0  0
  1 10  1  0  0  0
  1 27  1  0  0  0
  1 28  1  0  0  0
  2  6  1  0  0  0
  2 29  1  0  0  0
  2 30  1  0  0  0
  3  4  1  0  0  0
  3  6  1  0  0  0
  3 31  1  0  0  0
  3 32  1  0  0  0
  4 10  1  0  0  0
  4 33  1  0  0  0
  4 34  1  0  0  0
  5  8  1  0  0  0
  5 35  1  0  0  0
  5 47  2  0  0  0
  7 17  1  0  0  0
  7 23  2  0  0  0
  7 24  1  0  0  0
  8 18  2  0  0  0
  8 20  1  0  0  0
  9 22  1  0  0  0
  9 25  2  0  0  0
  9 26  1  0  0  0
 10 26  1  0  0  0
 10 36  1  0  0  0
 11 12  1  0  0  0
 11 15  2  0  0  0
 11 16  1  0  0  0
 12 17  2  0  0  0
 12 37  1  0  0  0
 13 14  2  0  0  0
 13 38  1  0  0  0
 13 47  1  0  0  0
 14 18  1  0  0  0
 14 39  1  0  0  0
 15 24  1  0  0  0
 15 25  1  0  0  0
 16 22  2  0  0  0
 16 40  1  0  0  0
 17 21  1  0  0  0
 18 21  1  0  0  0
 19 24  1  0  0  0
 19 41  1  0  0  0
 19 42  1  0  0  0
 19 43  1  0  0  0
 21 45  1  0  0  0
 21 46  1  0  0  0
 26 44  1  0  0  0
 47 48  1  0  0  0
M  END
> <s_m_entry_id>
346

> <s_m_entry_name>
p38_p38a_2j.1

> <r_user_dG.exp>
-10.081

> <r_m_Molecular_weight>
386.4048

> <s_m_Source_Path>
C:\Users\yujiethinkpad\Desktop\05A\p38

> <s_m_Source_File>
p38_p38a_2j.sdf

> <i_m_Source_File_Index>
1

> <s_m_job_name>
align_ligands_8350

> <i_phase_Input_Structure_Number>
20

> <i_phase_Structure_Number>
20

> <r_phase_Similarity_to_Reference>
0.819142254431545

> <i_phase_Reference_Structure>
1

> <s_phase_Alignment_Method>
snapped core

> <s_phase_Alignment_Reason>


> <s_phase_Core_SMARTS>
a1aaaa(a12)aa(a(=A)[a]2)Aa3aaaaa3

> <s_f3d_frozen_atoms>
25 9 22 16 11 15 12 17 7 23 24 21 18 14 13 47 5 8 40 37 23 45 46 39 38 48 35 20

> <s_m_subgroup_title>
align_ligands_8350

> <s_m_subgroupid>
align_ligands_8350

> <b_m_subgroup_collapsed>
0

$$$$
