p38a_3fmk
                    3D
 Schrodinger Suite 2021-2.
 46 49  0  0  1  0            999 V2000
   37.9052   35.4420   17.7578 C   0  0  0  0  0  0
   38.1374   35.8655   16.4401 C   0  0  0  0  0  0
   32.9333   35.0919   22.9858 C   0  0  0  0  0  0
   35.8148   36.5891   16.2588 C   0  0  0  0  0  0
   35.1923   39.2868   21.9457 C   0  0  0  0  0  0
   32.1715   38.9464   25.6656 C   0  0  1  0  0  0
   32.6283   37.5181   25.7021 C   0  0  0  0  0  0
   33.7779   39.0930   23.7181 C   0  0  0  0  0  0
   34.7176   35.0959   21.3027 C   0  0  0  0  0  0
   35.6678   35.8778   20.5037 C   0  0  0  0  0  0
   35.8167   37.2065   20.6701 C   0  0  0  0  0  0
   36.6359   35.6173   18.3442 C   0  0  0  0  0  0
   35.5809   36.1701   17.5819 C   0  0  0  0  0  0
   35.0563   37.9124   21.6857 C   0  0  0  0  0  0
   34.1632   37.1810   22.4937 C   0  0  0  0  0  0
   33.0823   39.7276   24.8339 N   0  0  0  0  0  0
   37.0970   36.4498   15.6968 C   0  0  0  0  0  0
   37.3621   36.9406   14.4660 F   0  0  0  0  0  0
   38.9086   34.8645   18.4601 F   0  0  0  0  0  0
   36.4635   35.1858   19.6340 O   0  0  0  0  0  0
   34.6044   33.8784   21.1484 O   0  0  0  0  0  0
   33.9731   35.7885   22.2151 N   0  0  0  0  0  0
   33.5346   37.7995   23.5169 N   0  0  0  0  0  0
   34.5438   39.8762   22.9655 N   0  0  0  0  0  0
   30.7874   39.0142   25.0914 C   0  0  0  0  0  0
   33.9755   37.4522   26.2610 N   0  0  3  0  0  0
   34.6748   38.5282   26.6721 N   0  0  0  0  0  0
   35.7964   37.9767   27.0834 C   0  0  0  0  0  0
   35.8453   36.6628   26.9609 N   0  0  0  0  0  0
   34.6333   36.2989   26.4119 N   0  0  0  0  0  0
   39.1204   35.7628   16.0084 H   0  0  0  0  0  0
   32.0233   35.6910   23.0352 H   0  0  0  0  0  0
   32.6394   34.1282   22.5672 H   0  0  0  0  0  0
   33.2801   34.9253   24.0062 H   0  0  0  0  0  0
   35.0131   37.0159   15.6771 H   0  0  0  0  0  0
   35.8442   39.9054   21.3487 H   0  0  0  0  0  0
   32.1653   39.3518   26.6774 H   0  0  0  0  0  0
   31.9483   36.9349   26.3230 H   0  0  0  0  0  0
   32.6345   37.1127   24.6903 H   0  0  0  0  0  0
   36.5286   37.7772   20.0962 H   0  0  0  0  0  0
   34.5972   36.2712   18.0073 H   0  0  0  0  0  0
   33.2347   40.7313   25.0352 H   0  0  0  0  0  0
   30.1074   38.4310   25.7123 H   0  0  0  0  0  0
   30.4555   40.0521   25.0649 H   0  0  0  0  0  0
   30.7936   38.6088   24.0796 H   0  0  0  0  0  0
   36.6208   38.5526   27.4926 H   0  0  0  0  0  0
  1  2  1  0  0  0
  1 12  2  0  0  0
  1 19  1  0  0  0
  2 17  2  0  0  0
  2 31  1  0  0  0
  3 22  1  0  0  0
  3 32  1  0  0  0
  3 33  1  0  0  0
  3 34  1  0  0  0
  4 13  2  0  0  0
  4 17  1  0  0  0
  4 35  1  0  0  0
  5 14  1  0  0  0
  5 24  2  0  0  0
  5 36  1  0  0  0
  6  7  1  0  0  0
  6 16  1  0  0  0
  6 25  1  0  0  0
  6 37  1  0  0  0
  7 26  1  0  0  0
  7 38  1  0  0  0
  7 39  1  0  0  0
  8 16  1  0  0  0
  8 23  2  0  0  0
  8 24  1  0  0  0
  9 10  1  0  0  0
  9 21  2  0  0  0
  9 22  1  0  0  0
 10 11  2  0  0  0
 10 20  1  0  0  0
 11 14  1  0  0  0
 11 40  1  0  0  0
 12 13  1  0  0  0
 12 20  1  0  0  0
 13 41  1  0  0  0
 14 15  2  0  0  0
 15 22  1  0  0  0
 15 23  1  0  0  0
 16 42  1  0  0  0
 17 18  1  0  0  0
 25 43  1  0  0  0
 25 44  1  0  0  0
 25 45  1  0  0  0
 26 27  1  0  0  0
 26 30  1  0  0  0
 27 28  2  0  0  0
 28 29  1  0  0  0
 28 46  1  0  0  0
 29 30  2  0  0  0
M  END
> <s_m_entry_id>
334

> <s_m_entry_name>
p38_p38a_3fmk.1

> <r_user_dG.exp>
-11.8325

> <r_m_Molecular_weight>
414.37742

> <s_m_Source_Path>
C:\Users\yujiethinkpad\Desktop\05A\p38

> <s_m_Source_File>
p38_p38a_3fmk.sdf

> <i_m_Source_File_Index>
1

> <s_m_job_name>
align_ligands_8350

> <i_phase_Input_Structure_Number>
8

> <i_phase_Structure_Number>
8

> <r_phase_Similarity_to_Reference>
0.843127364470701

> <i_phase_Reference_Structure>
1

> <s_phase_Alignment_Method>
snapped core

> <s_phase_Alignment_Reason>


> <s_phase_Core_SMARTS>
a1aaaa(a12)aa(a(=A)[a]2)Aa3aaaaa3

> <s_f3d_frozen_atoms>
23 8 24 5 14 15 11 10 9 21 22 20 12 13 4 17 2 1 36 40 21 41 35 18 31 19

> <s_m_subgroup_title>
align_ligands_8350

> <s_m_subgroupid>
align_ligands_8350

> <b_m_subgroup_collapsed>
0

$$$$
