@<TRIPOS>MOLECULE
p38a_3flw
49   51    1
SMALL
USER_CHARGES


@<TRIPOS>ATOM
      1 C1         38.3390   36.6732   17.0574 C.ar      1 UNK         0.0000 
      2 C2         37.6670   36.6212   15.8212 C.ar      1 UNK         0.0000 
      3 C3         33.5281   39.4364   27.3316 C.3       1 UNK         0.0000 
      4 C4         34.9049   38.7976   27.5610 C.3       1 UNK         0.0000 
      5 C5         31.4189   39.4188   25.9024 C.3       1 UNK         0.0000 
      6 C6         33.4672   34.8125   23.3952 C.3       1 UNK         0.0000 
      7 F7         38.3758   36.2250   19.4044 F         1 UNK         0.0000 
      8 C8         37.7408   36.1338   18.2118 C.ar      1 UNK         0.0000 
      9 F9         38.2121   37.1987   14.7266 F         1 UNK         0.0000 
     10 C10        36.4167   35.9838   15.7308 C.ar      1 UNK         0.0000 
     11 C11        35.8281   35.4259   16.8797 C.ar      1 UNK         0.0000 
     12 C12        36.4736   35.5188   18.1281 C.ar      1 UNK         0.0000 
     13 O13        35.8847   34.9357   19.2218 O.3       1 UNK         0.0000 
     14 C14        35.3223   35.6836   20.2329 C.ar      1 UNK         0.0000 
     15 C15        35.4160   37.0309   20.3178 C.ar      1 UNK         0.0000 
     16 C16        34.8964   37.7486   21.4749 C.ar      1 UNK         0.0000 
     17 C17        35.0144   39.1441   21.6469 C.ar      1 UNK         0.0000 
     18 N18        34.6050   39.7559   22.7793 N.ar      1 UNK         0.0000 
     19 C19        34.6208   34.9125   21.2655 C.ar      1 UNK         0.0000 
     20 O20        34.4686   33.6966   21.1598 O.2       1 UNK         0.0000 
     21 N21        34.1449   35.5950   22.3469 N.pl3     1 UNK         0.0000 
     22 C22        34.2884   37.0112   22.5117 C.ar      1 UNK         0.0000 
     23 N23        33.8757   37.6552   23.6268 N.ar      1 UNK         0.0000 
     24 C24        34.0662   38.9716   23.7113 C.ar      1 UNK         0.0000 
     25 N25        33.6452   39.5897   24.8695 N.pl3     1 UNK         0.0000 
     26 C26        32.9030   39.0189   25.9874 C.3       1 UNK         0.0000 
     27 C27        30.6868   38.8865   24.6577 C.3       1 UNK         0.0000 
     28 O28        30.6837   37.4753   24.6295 O.3       1 UNK         0.0000 
     29 O29        35.4267   39.1835   28.8127 O.3       1 UNK         0.0000 
     30 H30        39.2980   37.1604   17.1263 H         1 UNK         0.0000 
     31 H31        32.8679   39.1262   28.1438 H         1 UNK         0.0000 
     32 H32        33.5949   40.5219   27.3993 H         1 UNK         0.0000 
     33 H33        34.8153   37.7129   27.5367 H         1 UNK         0.0000 
     34 H34        35.6091   39.0891   26.7798 H         1 UNK         0.0000 
     35 H35        30.8951   39.0627   26.7900 H         1 UNK         0.0000 
     36 H36        31.3400   40.5063   25.9193 H         1 UNK         0.0000 
     37 H37        32.9976   35.4153   24.1717 H         1 UNK         0.0000 
     38 H38        32.6714   34.1983   22.9705 H         1 UNK         0.0000 
     39 H39        34.1778   34.1485   23.8896 H         1 UNK         0.0000 
     40 H40        35.9016   35.9332   14.7836 H         1 UNK         0.0000 
     41 H41        34.8741   34.9279   16.8079 H         1 UNK         0.0000 
     42 H42        35.9270   37.6189   19.5731 H         1 UNK         0.0000 
     43 H43        35.4697   39.7635   20.8904 H         1 UNK         0.0000 
     44 H44        33.8423   40.5802   24.9319 H         1 UNK         0.0000 
     45 H45        32.9571   37.9315   25.9403 H         1 UNK         0.0000 
     46 H46        29.6539   39.2323   24.6588 H         1 UNK         0.0000 
     47 H47        31.1447   39.2612   23.7430 H         1 UNK         0.0000 
     48 H48        31.5770   37.1767   24.5410 H         1 UNK         0.0000 
     49 H49        35.5690   40.1184   28.8033 H         1 UNK         0.0000 
@<TRIPOS>BOND
     1    1    2 ar   
     2    1    8 ar   
     3    1   30 1    
     4    2    9 1    
     5    2   10 ar   
     6    3    4 1    
     7    3   26 1    
     8    3   31 1    
     9    3   32 1    
    10    4   29 1    
    11    4   33 1    
    12    4   34 1    
    13    5   26 1    
    14    5   27 1    
    15    5   35 1    
    16    5   36 1    
    17    6   21 1    
    18    6   37 1    
    19    6   38 1    
    20    6   39 1    
    21    7    8 1    
    22    8   12 ar   
    23   10   11 ar   
    24   10   40 1    
    25   11   12 ar   
    26   11   41 1    
    27   12   13 1    
    28   13   14 1    
    29   14   15 ar   
    30   14   19 ar   
    31   15   16 ar   
    32   15   42 1    
    33   16   17 ar   
    34   16   22 ar   
    35   17   18 ar   
    36   17   43 1    
    37   18   24 ar   
    38   19   20 2    
    39   19   21 ar   
    40   21   22 ar   
    41   22   23 ar   
    42   23   24 ar   
    43   24   25 1    
    44   25   26 1    
    45   25   44 1    
    46   26   45 1    
    47   27   28 1    
    48   27   46 1    
    49   27   47 1    
    50   28   48 1    
    51   29   49 1    
@<TRIPOS>SUBSTRUCTURE
     1 UNK         1 GROUP             0       ****    0 ROOT    
