@<TRIPOS>MOLECULE
p38a_2j
48   51    1
SMALL
USER_CHARGES


@<TRIPOS>ATOM
      1 C1         31.6235   38.9529   26.1544 C.3       1 UNK         0.0000 
      2 C2         31.0952   38.3551   27.4684 C.3       1 UNK         0.0000 
      3 C3         33.0541   38.9788   28.6539 C.3       1 UNK         0.0000 
      4 C4         33.6809   39.6144   27.4031 C.3       1 UNK         0.0000 
      5 C5         38.3660   36.7077   16.8209 C.ar      1 UNK         0.0000 
      6 O6         31.6350   39.0631   28.5784 O.3       1 UNK         0.0000 
      7 C7         34.5448   34.9770   21.1828 C.ar      1 UNK         0.0000 
      8 C8         37.6997   36.1819   17.9448 C.ar      1 UNK         0.0000 
      9 C9         34.0445   38.9756   23.7378 C.ar      1 UNK         0.0000 
     10 C10        33.1562   38.9294   26.1332 C.3       1 UNK         0.0000 
     11 C11        34.8025   37.8108   21.4407 C.ar      1 UNK         0.0000 
     12 C12        35.2536   37.1252   20.2344 C.ar      1 UNK         0.0000 
     13 C13        36.4300   36.2096   15.4303 C.ar      1 UNK         0.0000 
     14 C14        35.7747   35.6617   16.5471 C.ar      1 UNK         0.0000 
     15 C15        34.3067   37.0366   22.5109 C.ar      1 UNK         0.0000 
     16 C16        34.8522   39.2088   21.6169 C.ar      1 UNK         0.0000 
     17 C17        35.1646   35.7815   20.1251 C.ar      1 UNK         0.0000 
     18 C18        36.3960   35.6573   17.8103 C.ar      1 UNK         0.0000 
     19 C19        33.6690   34.8315   23.4618 C.3       1 UNK         0.0000 
     20 F20        38.2989   36.1901   19.1355 F         1 UNK         0.0000 
     21 C21        35.6924   34.9985   18.9596 C.3       1 UNK         0.0000 
     22 N22        34.4789   39.7925   22.7772 N.ar      1 UNK         0.0000 
     23 O23        34.3290   33.7761   21.0235 O.2       1 UNK         0.0000 
     24 N24        34.2121   35.6181   22.3415 N.pl3     1 UNK         0.0000 
     25 N25        33.9306   37.6499   23.6560 N.ar      1 UNK         0.0000 
     26 N26        33.6717   39.5652   24.9268 N.pl3     1 UNK         0.0000 
     27 H27        31.2200   38.3997   25.3053 H         1 UNK         0.0000 
     28 H28        31.2771   39.9808   26.0536 H         1 UNK         0.0000 
     29 H29        30.0102   38.4341   27.5066 H         1 UNK         0.0000 
     30 H30        31.3432   37.2955   27.5444 H         1 UNK         0.0000 
     31 H31        33.3652   37.9383   28.7608 H         1 UNK         0.0000 
     32 H32        33.3890   39.5054   29.5480 H         1 UNK         0.0000 
     33 H33        33.4274   40.6742   27.3922 H         1 UNK         0.0000 
     34 H34        34.7681   39.5450   27.4512 H         1 UNK         0.0000 
     35 H35        39.3613   37.1091   16.9241 H         1 UNK         0.0000 
     36 H36        33.4882   37.8909   26.1541 H         1 UNK         0.0000 
     37 H37        35.7026   37.7356   19.4667 H         1 UNK         0.0000 
     38 H38        35.9403   36.2182   14.4678 H         1 UNK         0.0000 
     39 H39        34.7945   35.2237   16.4304 H         1 UNK         0.0000 
     40 H40        35.2183   39.8565   20.8356 H         1 UNK         0.0000 
     41 H41        34.0543   35.1876   24.4176 H         1 UNK         0.0000 
     42 H42        32.5822   34.9190   23.4834 H         1 UNK         0.0000 
     43 H43        33.9197   33.7705   23.4230 H         1 UNK         0.0000 
     44 H44        33.7904   40.5685   24.9712 H         1 UNK         0.0000 
     45 H45        36.4277   34.2745   19.3107 H         1 UNK         0.0000 
     46 H46        34.8709   34.4738   18.4718 H         1 UNK         0.0000 
     47 C47        37.7595   36.7642   15.5101 C.ar      1 UNK         0.0000 
     48 F48        38.3816   37.2891   14.4545 F         1 UNK         0.0000 
@<TRIPOS>BOND
     1    1    2 1    
     2    1   10 1    
     3    1   27 1    
     4    1   28 1    
     5    2    6 1    
     6    2   29 1    
     7    2   30 1    
     8    3    4 1    
     9    3    6 1    
    10    3   31 1    
    11    3   32 1    
    12    4   10 1    
    13    4   33 1    
    14    4   34 1    
    15    5    8 ar   
    16    5   35 1    
    17    5   47 ar   
    18    7   17 ar   
    19    7   23 2    
    20    7   24 ar   
    21    8   18 ar   
    22    8   20 1    
    23    9   22 ar   
    24    9   25 ar   
    25    9   26 1    
    26   10   26 1    
    27   10   36 1    
    28   11   12 ar   
    29   11   15 ar   
    30   11   16 ar   
    31   12   17 ar   
    32   12   37 1    
    33   13   14 ar   
    34   13   38 1    
    35   13   47 ar   
    36   14   18 ar   
    37   14   39 1    
    38   15   24 ar   
    39   15   25 ar   
    40   16   22 ar   
    41   16   40 1    
    42   17   21 1    
    43   18   21 1    
    44   19   24 1    
    45   19   41 1    
    46   19   42 1    
    47   19   43 1    
    48   21   45 1    
    49   21   46 1    
    50   26   44 1    
    51   47   48 1    
@<TRIPOS>SUBSTRUCTURE
     1 UNK         1 GROUP             0       ****    0 ROOT    
