@<TRIPOS>MOLECULE
p38a_3fly
41   43    1
SMALL
USER_CHARGES


@<TRIPOS>ATOM
      1 C1         34.9076   39.1154   21.5907 C.ar      1 UNK         0.0000 
      2 C2         34.0709   36.9986   22.3846 C.ar      1 UNK         0.0000 
      3 N3         34.4455   39.7277   22.7024 N.ar      1 UNK         0.0000 
      4 C4         34.7548   37.7275   21.3918 C.ar      1 UNK         0.0000 
      5 C5         35.2950   37.0103   20.2460 C.ar      1 UNK         0.0000 
      6 C6         35.1390   35.6721   20.1250 C.ar      1 UNK         0.0000 
      7 C7         34.3682   34.9095   21.1164 C.ar      1 UNK         0.0000 
      8 C8         33.8227   38.9512   23.5893 C.ar      1 UNK         0.0000 
      9 C9         32.6093   38.9831   25.8341 C.3       1 UNK         0.0000 
     10 C10        33.0071   39.6254   27.1688 C.3       1 UNK         0.0000 
     11 C11        31.1036   39.1058   25.5754 C.3       1 UNK         0.0000 
     12 C12        36.3552   35.5188   18.0595 C.ar      1 UNK         0.0000 
     13 C13        35.7370   35.5446   16.7957 C.ar      1 UNK         0.0000 
     14 C14        36.4063   36.0920   15.6859 C.ar      1 UNK         0.0000 
     15 C15        37.7125   36.5912   15.8323 C.ar      1 UNK         0.0000 
     16 C16        38.3545   36.5250   17.0835 C.ar      1 UNK         0.0000 
     17 C17        37.6744   36.0012   18.1998 C.ar      1 UNK         0.0000 
     18 F18        38.3423   37.1505   14.7742 F         1 UNK         0.0000 
     19 F19        38.2865   35.9641   19.4063 F         1 UNK         0.0000 
     20 O20        35.6958   34.9289   19.1092 O.3       1 UNK         0.0000 
     21 O21        34.1461   33.7090   20.9621 O.2       1 UNK         0.0000 
     22 N22        33.9060   35.5872   22.2067 N.pl3     1 UNK         0.0000 
     23 C23        33.1842   34.8573   23.2623 C.3       1 UNK         0.0000 
     24 N24        33.6031   37.6404   23.4789 N.ar      1 UNK         0.0000 
     25 N25        33.3560   39.5693   24.7304 N.pl3     1 UNK         0.0000 
     26 H26        35.4259   39.7257   20.8689 H         1 UNK         0.0000 
     27 H27        35.8585   37.5898   19.5322 H         1 UNK         0.0000 
     28 H28        32.8600   37.9243   25.9000 H         1 UNK         0.0000 
     29 H29        34.0800   39.5427   27.3436 H         1 UNK         0.0000 
     30 H30        32.7423   40.6808   27.1972 H         1 UNK         0.0000 
     31 H31        32.4989   39.1386   28.0016 H         1 UNK         0.0000 
     32 H32        30.8133   38.5729   24.6694 H         1 UNK         0.0000 
     33 H33        30.5297   38.6851   26.4010 H         1 UNK         0.0000 
     34 H34        30.8112   40.1484   25.4520 H         1 UNK         0.0000 
     35 H35        34.7428   35.1444   16.6797 H         1 UNK         0.0000 
     36 H36        35.9140   36.1326   14.7266 H         1 UNK         0.0000 
     37 H37        39.3585   36.9029   17.1929 H         1 UNK         0.0000 
     38 H38        33.2503   33.7705   23.1972 H         1 UNK         0.0000 
     39 H39        33.5836   35.1186   24.2423 H         1 UNK         0.0000 
     40 H40        32.1271   35.1256   23.2468 H         1 UNK         0.0000 
     41 H41        33.5759   40.5519   24.8165 H         1 UNK         0.0000 
@<TRIPOS>BOND
     1    1    3 ar   
     2    1    4 ar   
     3    1   26 1    
     4    2    4 ar   
     5    2   22 ar   
     6    2   24 ar   
     7    3    8 ar   
     8    4    5 ar   
     9    5    6 ar   
    10    5   27 1    
    11    6    7 ar   
    12    6   20 1    
    13    7   21 2    
    14    7   22 ar   
    15    8   24 ar   
    16    8   25 1    
    17    9   10 1    
    18    9   11 1    
    19    9   25 1    
    20    9   28 1    
    21   10   29 1    
    22   10   30 1    
    23   10   31 1    
    24   11   32 1    
    25   11   33 1    
    26   11   34 1    
    27   12   13 ar   
    28   12   17 ar   
    29   12   20 1    
    30   13   14 ar   
    31   13   35 1    
    32   14   15 ar   
    33   14   36 1    
    34   15   16 ar   
    35   15   18 1    
    36   16   17 ar   
    37   16   37 1    
    38   17   19 1    
    39   22   23 1    
    40   23   38 1    
    41   23   39 1    
    42   23   40 1    
    43   25   41 1    
@<TRIPOS>SUBSTRUCTURE
     1 UNK         1 GROUP             0       ****    0 ROOT    
