@<TRIPOS>MOLECULE
p38a_3fmk
46   49    1
SMALL
USER_CHARGES


@<TRIPOS>ATOM
      1 C1         37.4499   36.1830   18.1487 C.ar      1 UNK         0.0000 
      2 C2         38.1696   36.6865   17.0471 C.ar      1 UNK         0.0000 
      3 C3         33.9960   34.9417   23.6436 C.3       1 UNK         0.0000 
      4 C4         36.1722   36.5213   15.6625 C.ar      1 UNK         0.0000 
      5 C5         34.9655   39.3394   21.6756 C.ar      1 UNK         0.0000 
      6 C6         33.7550   39.0892   26.3355 C.3       1 UNK         0.0000 
      7 C7         32.2216   39.1946   26.4393 C.3       1 UNK         0.0000 
      8 C8         34.4641   39.1128   23.8852 C.ar      1 UNK         0.0000 
      9 C9         34.5805   35.1104   21.2894 C.ar      1 UNK         0.0000 
     10 C10        35.0705   35.9158   20.1637 C.ar      1 UNK         0.0000 
     11 C11        35.1769   37.2591   20.2658 C.ar      1 UNK         0.0000 
     12 C12        36.0947   35.8168   17.9992 C.ar      1 UNK         0.0000 
     13 C13        35.4579   36.0034   16.7577 C.ar      1 UNK         0.0000 
     14 C14        34.8891   37.9415   21.5155 C.ar      1 UNK         0.0000 
     15 C15        34.5405   37.1689   22.6422 C.ar      1 UNK         0.0000 
     16 N16        34.2339   39.7075   25.1064 N.pl3     1 UNK         0.0000 
     17 C17        37.5311   36.8528   15.8039 C.ar      1 UNK         0.0000 
     18 F18        38.2117   37.3536   14.7474 F         1 UNK         0.0000 
     19 F19        38.0544   36.0747   19.3543 F         1 UNK         0.0000 
     20 O20        35.4035   35.2192   19.0260 O.3       1 UNK         0.0000 
     21 O21        34.3338   33.9107   21.1622 O.2       1 UNK         0.0000 
     22 N22        34.4048   35.7500   22.4822 N.pl3     1 UNK         0.0000 
     23 N23        34.3407   37.7866   23.8262 N.ar      1 UNK         0.0000 
     24 N24        34.7556   39.9268   22.8724 N.ar      1 UNK         0.0000 
     25 C25        34.4411   39.7232   27.5517 C.3       1 UNK         0.0000 
     26 N26        31.5339   38.4194   25.4203 N.pl3     1 UNK         0.0000 
     27 N27        30.8990   38.9813   24.3738 N.2       1 UNK         0.0000 
     28 C28        30.4889   37.8869   23.7525 C.ar      1 UNK         0.0000 
     29 N29        30.8476   36.7261   24.3686 N.2       1 UNK         0.0000 
     30 N30        31.4960   37.0716   25.4318 N.2       1 UNK         0.0000 
     31 H31        39.2046   36.9661   17.1643 H         1 UNK         0.0000 
     32 H32        34.2102   35.4192   24.5993 H         1 UNK         0.0000 
     33 H33        32.9242   34.7447   23.6046 H         1 UNK         0.0000 
     34 H34        34.5135   33.9818   23.6761 H         1 UNK         0.0000 
     35 H35        35.6788   36.6645   14.7142 H         1 UNK         0.0000 
     36 H36        35.2216   39.9823   20.8479 H         1 UNK         0.0000 
     37 H37        34.0323   38.0349   26.3317 H         1 UNK         0.0000 
     38 H38        31.8876   38.8317   27.4111 H         1 UNK         0.0000 
     39 H39        31.9109   40.2361   26.3605 H         1 UNK         0.0000 
     40 H40        35.5210   37.8681   19.4457 H         1 UNK         0.0000 
     41 H41        34.4186   35.7470   16.6436 H         1 UNK         0.0000 
     42 H42        34.3199   40.7153   25.1238 H         1 UNK         0.0000 
     43 H43        35.5262   39.6672   27.4624 H         1 UNK         0.0000 
     44 H44        34.1651   40.7716   27.6668 H         1 UNK         0.0000 
     45 H45        34.1597   39.2064   28.4698 H         1 UNK         0.0000 
     46 H46        29.9080   37.9177   22.8450 H         1 UNK         0.0000 
@<TRIPOS>BOND
     1    1    2 ar   
     2    1   12 ar   
     3    1   19 1    
     4    2   17 ar   
     5    2   31 1    
     6    3   22 1    
     7    3   32 1    
     8    3   33 1    
     9    3   34 1    
    10    4   13 ar   
    11    4   17 ar   
    12    4   35 1    
    13    5   14 ar   
    14    5   24 ar   
    15    5   36 1    
    16    6    7 1    
    17    6   16 1    
    18    6   25 1    
    19    6   37 1    
    20    7   26 1    
    21    7   38 1    
    22    7   39 1    
    23    8   16 1    
    24    8   23 ar   
    25    8   24 ar   
    26    9   10 ar   
    27    9   21 2    
    28    9   22 ar   
    29   10   11 ar   
    30   10   20 1    
    31   11   14 ar   
    32   11   40 1    
    33   12   13 ar   
    34   12   20 1    
    35   13   41 1    
    36   14   15 ar   
    37   15   22 ar   
    38   15   23 ar   
    39   16   42 1    
    40   17   18 1    
    41   25   43 1    
    42   25   44 1    
    43   25   45 1    
    44   26   27 ar   
    45   26   30 ar   
    46   27   28 ar   
    47   28   29 ar   
    48   28   46 1    
    49   29   30 ar   
@<TRIPOS>SUBSTRUCTURE
     1 UNK         1 GROUP             0       ****    0 ROOT    
