@<TRIPOS>MOLECULE
p38a_2f
46   49    1
SMALL
USER_CHARGES


@<TRIPOS>ATOM
      1 C1         31.6235   38.9529   26.1544 C.3       1 UNK         0.0000 
      2 C2         31.0952   38.3551   27.4684 C.3       1 UNK         0.0000 
      3 C3         33.0541   38.9788   28.6539 C.3       1 UNK         0.0000 
      4 C4         33.6809   39.6144   27.4031 C.3       1 UNK         0.0000 
      5 C5         38.2632   36.7144   17.0134 C.ar      1 UNK         0.0000 
      6 O6         31.6350   39.0631   28.5784 O.3       1 UNK         0.0000 
      7 C7         34.5448   34.9770   21.1828 C.ar      1 UNK         0.0000 
      8 C8         37.5969   36.1886   18.1373 C.ar      1 UNK         0.0000 
      9 C9         34.0445   38.9756   23.7378 C.ar      1 UNK         0.0000 
     10 C10        33.1562   38.9294   26.1332 C.3       1 UNK         0.0000 
     11 C11        34.8025   37.8108   21.4407 C.ar      1 UNK         0.0000 
     12 C12        35.2536   37.1252   20.2344 C.ar      1 UNK         0.0000 
     13 C13        37.6232   36.7427   15.7594 C.ar      1 UNK         0.0000 
     14 C14        36.3272   36.2163   15.6228 C.ar      1 UNK         0.0000 
     15 C15        35.6719   35.6684   16.7395 C.ar      1 UNK         0.0000 
     16 C16        34.3067   37.0366   22.5109 C.ar      1 UNK         0.0000 
     17 C17        34.8522   39.2088   21.6169 C.ar      1 UNK         0.0000 
     18 C18        35.1646   35.7815   20.1251 C.ar      1 UNK         0.0000 
     19 C19        36.2931   35.6640   18.0028 C.ar      1 UNK         0.0000 
     20 C20        33.6690   34.8315   23.4618 C.3       1 UNK         0.0000 
     21 H21        38.0824   36.1953   19.1020 H         1 UNK         0.0000 
     22 O22        35.6498   35.0616   19.0536 O.3       1 UNK         0.0000 
     23 N23        34.4789   39.7925   22.7772 N.ar      1 UNK         0.0000 
     24 O24        34.3290   33.7761   21.0235 O.2       1 UNK         0.0000 
     25 N25        34.2121   35.6181   22.3415 N.pl3     1 UNK         0.0000 
     26 N26        33.9306   37.6499   23.6560 N.ar      1 UNK         0.0000 
     27 N27        33.6717   39.5652   24.9268 N.pl3     1 UNK         0.0000 
     28 H28        31.2200   38.3997   25.3053 H         1 UNK         0.0000 
     29 H29        31.2771   39.9808   26.0536 H         1 UNK         0.0000 
     30 H30        30.0102   38.4341   27.5066 H         1 UNK         0.0000 
     31 H31        31.3432   37.2955   27.5444 H         1 UNK         0.0000 
     32 H32        33.3652   37.9383   28.7608 H         1 UNK         0.0000 
     33 H33        33.3890   39.5054   29.5480 H         1 UNK         0.0000 
     34 H34        33.4274   40.6742   27.3922 H         1 UNK         0.0000 
     35 H35        34.7681   39.5450   27.4512 H         1 UNK         0.0000 
     36 F36        39.4938   37.2107   17.1409 F         1 UNK         0.0000 
     37 H37        33.4882   37.8909   26.1541 H         1 UNK         0.0000 
     38 H38        35.7026   37.7356   19.4667 H         1 UNK         0.0000 
     39 H39        35.8375   36.2249   14.6602 H         1 UNK         0.0000 
     40 H40        34.6916   35.2304   16.6228 H         1 UNK         0.0000 
     41 H41        35.2183   39.8565   20.8356 H         1 UNK         0.0000 
     42 H42        34.0543   35.1876   24.4176 H         1 UNK         0.0000 
     43 H43        32.5822   34.9190   23.4834 H         1 UNK         0.0000 
     44 H44        33.9197   33.7705   23.4230 H         1 UNK         0.0000 
     45 H45        33.7904   40.5685   24.9712 H         1 UNK         0.0000 
     46 H46        38.1201   37.1734   14.9026 H         1 UNK         0.0000 
@<TRIPOS>BOND
     1    1    2 1    
     2    1   10 1    
     3    1   28 1    
     4    1   29 1    
     5    2    6 1    
     6    2   30 1    
     7    2   31 1    
     8    3    4 1    
     9    3    6 1    
    10    3   32 1    
    11    3   33 1    
    12    4   10 1    
    13    4   34 1    
    14    4   35 1    
    15    5    8 ar   
    16    5   13 ar   
    17    5   36 1    
    18    7   18 ar   
    19    7   24 2    
    20    7   25 ar   
    21    8   19 ar   
    22    8   21 1    
    23    9   23 ar   
    24    9   26 ar   
    25    9   27 1    
    26   10   27 1    
    27   10   37 1    
    28   11   12 ar   
    29   11   16 ar   
    30   11   17 ar   
    31   12   18 ar   
    32   12   38 1    
    33   13   14 ar   
    34   13   46 1    
    35   14   15 ar   
    36   14   39 1    
    37   15   19 ar   
    38   15   40 1    
    39   16   25 ar   
    40   16   26 ar   
    41   17   23 ar   
    42   17   41 1    
    43   18   22 1    
    44   19   22 1    
    45   20   25 1    
    46   20   42 1    
    47   20   43 1    
    48   20   44 1    
    49   27   45 1    
@<TRIPOS>SUBSTRUCTURE
     1 UNK         1 GROUP             0       ****    0 ROOT    
