@<TRIPOS>MOLECULE
p38a_2z
45   47    1
SMALL
USER_CHARGES


@<TRIPOS>ATOM
      1 C1         38.2632   36.7144   17.0134 C.ar      1 UNK         0.0000 
      2 C2         34.5448   34.9770   21.1828 C.ar      1 UNK         0.0000 
      3 C3         37.5969   36.1886   18.1373 C.ar      1 UNK         0.0000 
      4 C4         34.0445   38.9756   23.7378 C.ar      1 UNK         0.0000 
      5 C5         33.1562   38.9294   26.1332 C.3       1 UNK         0.0000 
      6 C6         34.8025   37.8108   21.4407 C.ar      1 UNK         0.0000 
      7 C7         35.2536   37.1252   20.2344 C.ar      1 UNK         0.0000 
      8 C8         37.6232   36.7427   15.7594 C.ar      1 UNK         0.0000 
      9 C9         36.3272   36.2163   15.6228 C.ar      1 UNK         0.0000 
     10 C10        35.6719   35.6684   16.7395 C.ar      1 UNK         0.0000 
     11 C11        34.3067   37.0366   22.5109 C.ar      1 UNK         0.0000 
     12 C12        34.8522   39.2088   21.6169 C.ar      1 UNK         0.0000 
     13 C13        35.1646   35.7815   20.1251 C.ar      1 UNK         0.0000 
     14 C14        36.2931   35.6640   18.0028 C.ar      1 UNK         0.0000 
     15 C15        33.6690   34.8315   23.4618 C.3       1 UNK         0.0000 
     16 F16        38.1961   36.1968   19.3280 F         1 UNK         0.0000 
     17 O17        35.6498   35.0616   19.0536 O.3       1 UNK         0.0000 
     18 N18        34.4789   39.7925   22.7772 N.ar      1 UNK         0.0000 
     19 O19        34.3290   33.7761   21.0235 O.2       1 UNK         0.0000 
     20 N20        34.2121   35.6181   22.3415 N.pl3     1 UNK         0.0000 
     21 N21        33.9306   37.6499   23.6560 N.ar      1 UNK         0.0000 
     22 N22        33.6717   39.5652   24.9268 N.pl3     1 UNK         0.0000 
     23 H23        39.2585   37.1158   17.1165 H         1 UNK         0.0000 
     24 C24        33.6129   37.5010   26.1619 C.3       1 UNK         0.0000 
     25 H25        35.7026   37.7356   19.4667 H         1 UNK         0.0000 
     26 H26        35.8375   36.2249   14.6602 H         1 UNK         0.0000 
     27 H27        34.6916   35.2304   16.6228 H         1 UNK         0.0000 
     28 H28        35.2183   39.8565   20.8356 H         1 UNK         0.0000 
     29 H29        34.0543   35.1876   24.4176 H         1 UNK         0.0000 
     30 H30        32.5822   34.9190   23.4834 H         1 UNK         0.0000 
     31 H31        33.9197   33.7705   23.4230 H         1 UNK         0.0000 
     32 H32        33.7904   40.5685   24.9712 H         1 UNK         0.0000 
     33 F33        38.2365   37.2743   14.7019 F         1 UNK         0.0000 
     34 C34        33.6752   39.6520   27.3409 C.3       1 UNK         0.0000 
     35 C35        31.6571   38.9824   26.1256 C.3       1 UNK         0.0000 
     36 O36        35.0843   39.6023   27.3496 O.3       1 UNK         0.0000 
     37 H37        35.4164   40.0648   28.1225 H         1 UNK         0.0000 
     38 H38        33.3490   40.6916   27.3110 H         1 UNK         0.0000 
     39 H39        33.2898   39.1766   28.2429 H         1 UNK         0.0000 
     40 H40        31.2717   38.5070   27.0276 H         1 UNK         0.0000 
     41 H41        31.3299   40.0216   26.0951 H         1 UNK         0.0000 
     42 H42        31.2789   38.4570   25.2487 H         1 UNK         0.0000 
     43 H43        33.2328   37.0154   27.0607 H         1 UNK         0.0000 
     44 H44        33.2359   36.9806   25.2814 H         1 UNK         0.0000 
     45 H45        34.7024   37.4673   26.1645 H         1 UNK         0.0000 
@<TRIPOS>BOND
     1    1    3 ar   
     2    1    8 ar   
     3    1   23 1    
     4    2   13 ar   
     5    2   19 2    
     6    2   20 ar   
     7    3   14 ar   
     8    3   16 1    
     9    4   18 ar   
    10    4   21 ar   
    11    4   22 1    
    12    5   22 1    
    13    5   24 1    
    14    5   34 1    
    15    5   35 1    
    16    6    7 ar   
    17    6   11 ar   
    18    6   12 ar   
    19    7   13 ar   
    20    7   25 1    
    21    8    9 ar   
    22    8   33 1    
    23    9   10 ar   
    24    9   26 1    
    25   10   14 ar   
    26   10   27 1    
    27   11   20 ar   
    28   11   21 ar   
    29   12   18 ar   
    30   12   28 1    
    31   13   17 1    
    32   14   17 1    
    33   15   20 1    
    34   15   29 1    
    35   15   30 1    
    36   15   31 1    
    37   22   32 1    
    38   24   43 1    
    39   24   44 1    
    40   24   45 1    
    41   34   36 1    
    42   34   38 1    
    43   34   39 1    
    44   35   40 1    
    45   35   41 1    
    46   35   42 1    
    47   36   37 1    
@<TRIPOS>SUBSTRUCTURE
     1 UNK         1 GROUP             0       ****    0 ROOT    
