@<TRIPOS>MOLECULE
p38a_2c
45   48    1
SMALL
USER_CHARGES


@<TRIPOS>ATOM
      1 C1         31.6235   38.9529   26.1544 C.3       1 UNK         0.0000 
      2 C2         31.0952   38.3551   27.4684 C.3       1 UNK         0.0000 
      3 C3         33.0541   38.9788   28.6539 C.3       1 UNK         0.0000 
      4 C4         33.6809   39.6144   27.4031 C.3       1 UNK         0.0000 
      5 O5         31.6350   39.0631   28.5784 O.3       1 UNK         0.0000 
      6 C6         34.5448   34.9770   21.1828 C.ar      1 UNK         0.0000 
      7 C7         34.0445   38.9756   23.7378 C.ar      1 UNK         0.0000 
      8 C8         33.1562   38.9294   26.1332 C.3       1 UNK         0.0000 
      9 C9         34.8025   37.8108   21.4407 C.ar      1 UNK         0.0000 
     10 C10        35.2536   37.1252   20.2344 C.ar      1 UNK         0.0000 
     11 C11        34.3067   37.0366   22.5109 C.ar      1 UNK         0.0000 
     12 C12        34.8522   39.2088   21.6169 C.ar      1 UNK         0.0000 
     13 C13        33.6690   34.8315   23.4618 C.3       1 UNK         0.0000 
     14 N14        34.4789   39.7925   22.7772 N.ar      1 UNK         0.0000 
     15 O15        34.3290   33.7761   21.0235 O.2       1 UNK         0.0000 
     16 N16        34.2121   35.6181   22.3415 N.pl3     1 UNK         0.0000 
     17 N17        33.9306   37.6499   23.6560 N.ar      1 UNK         0.0000 
     18 N18        33.6717   39.5652   24.9268 N.pl3     1 UNK         0.0000 
     19 H19        31.2200   38.3997   25.3053 H         1 UNK         0.0000 
     20 H20        31.2771   39.9808   26.0536 H         1 UNK         0.0000 
     21 H21        30.0102   38.4341   27.5066 H         1 UNK         0.0000 
     22 H22        31.3432   37.2955   27.5444 H         1 UNK         0.0000 
     23 H23        33.3652   37.9383   28.7608 H         1 UNK         0.0000 
     24 H24        33.3890   39.5054   29.5480 H         1 UNK         0.0000 
     25 H25        33.4274   40.6742   27.3922 H         1 UNK         0.0000 
     26 H26        34.7681   39.5450   27.4512 H         1 UNK         0.0000 
     27 H27        33.4882   37.8909   26.1541 H         1 UNK         0.0000 
     28 H28        35.7026   37.7356   19.4667 H         1 UNK         0.0000 
     29 H29        35.2183   39.8565   20.8356 H         1 UNK         0.0000 
     30 H30        34.0543   35.1876   24.4176 H         1 UNK         0.0000 
     31 H31        32.5822   34.9190   23.4834 H         1 UNK         0.0000 
     32 H32        33.9197   33.7705   23.4230 H         1 UNK         0.0000 
     33 H33        33.7904   40.5685   24.9712 H         1 UNK         0.0000 
     34 C34        35.1939   35.7469   20.0596 C.ar      1 UNK         0.0000 
     35 C35        36.7445   33.8221   16.5753 C.ar      1 UNK         0.0000 
     36 C36        36.8299   35.2183   16.7031 C.ar      1 UNK         0.0000 
     37 C37        36.3201   35.8511   17.8486 C.ar      1 UNK         0.0000 
     38 C38        35.7249   35.0878   18.8664 C.ar      1 UNK         0.0000 
     39 C39        35.6395   33.6916   18.7387 C.ar      1 UNK         0.0000 
     40 C40        36.1494   33.0588   17.5931 C.ar      1 UNK         0.0000 
     41 H41        37.1451   33.3249   15.6754 H         1 UNK         0.0000 
     42 H42        37.2975   35.8179   15.9034 H         1 UNK         0.0000 
     43 Cl43       36.4252   37.5707   18.0060 Cl        1 UNK         0.0000 
     44 H44        35.1720   33.0921   19.5382 H         1 UNK         0.0000 
     45 H45        36.0823   31.9620   17.4927 H         1 UNK         0.0000 
@<TRIPOS>BOND
     1    1    2 1    
     2    1    8 1    
     3    1   19 1    
     4    1   20 1    
     5    2    5 1    
     6    2   21 1    
     7    2   22 1    
     8    3    4 1    
     9    3    5 1    
    10    3   23 1    
    11    3   24 1    
    12    4    8 1    
    13    4   25 1    
    14    4   26 1    
    15    6   15 2    
    16    6   16 ar   
    17    6   34 ar   
    18    7   14 ar   
    19    7   17 ar   
    20    7   18 1    
    21    8   18 1    
    22    8   27 1    
    23    9   10 ar   
    24    9   11 ar   
    25    9   12 ar   
    26   10   28 1    
    27   10   34 ar   
    28   11   16 ar   
    29   11   17 ar   
    30   12   14 ar   
    31   12   29 1    
    32   13   16 1    
    33   13   30 1    
    34   13   31 1    
    35   13   32 1    
    36   18   33 1    
    37   34   38 1    
    38   35   36 ar   
    39   35   40 ar   
    40   35   41 1    
    41   36   37 ar   
    42   36   42 1    
    43   37   38 ar   
    44   37   43 1    
    45   38   39 ar   
    46   39   40 ar   
    47   39   44 1    
    48   40   45 1    
@<TRIPOS>SUBSTRUCTURE
     1 UNK         1 GROUP             0       ****    0 ROOT    
