@<TRIPOS>MOLECULE
p38a_3flz
46   49    1
SMALL
USER_CHARGES


@<TRIPOS>ATOM
      1 O1         35.5410   34.9770   19.0020 O.3       1 UNK         0.0000 
      2 C2         35.2381   37.0312   20.2150 C.ar      1 UNK         0.0000 
      3 C3         34.0764   36.9949   22.3869 C.ar      1 UNK         0.0000 
      4 C4         34.7541   37.7332   21.3955 C.ar      1 UNK         0.0000 
      5 C5         34.9549   39.1098   21.6309 C.ar      1 UNK         0.0000 
      6 C6         33.9384   38.9146   23.6636 C.ar      1 UNK         0.0000 
      7 C7         35.0645   35.6968   20.0743 C.ar      1 UNK         0.0000 
      8 C8         36.3624   35.5471   18.0621 C.ar      1 UNK         0.0000 
      9 C9         33.0864   34.8683   23.1909 C.3       1 UNK         0.0000 
     10 C10        33.5064   39.5490   27.3259 C.3       1 UNK         0.0000 
     11 C11        35.8921   35.7389   16.7478 C.ar      1 UNK         0.0000 
     12 C12        38.0806   36.5759   16.0760 C.ar      1 UNK         0.0000 
     13 C13        36.7488   36.2542   15.7562 C.ar      1 UNK         0.0000 
     14 C14        38.5585   36.3724   17.3849 C.ar      1 UNK         0.0000 
     15 O15        34.2139   33.6973   20.9781 O.2       1 UNK         0.0000 
     16 C16        34.3461   34.9166   21.0904 C.ar      1 UNK         0.0000 
     17 C17        37.6988   35.8680   18.3785 C.ar      1 UNK         0.0000 
     18 N18        34.5481   39.7018   22.7746 N.ar      1 UNK         0.0000 
     19 N19        33.8517   35.5974   22.1657 N.pl3     1 UNK         0.0000 
     20 N20        33.6772   37.6157   23.5208 N.ar      1 UNK         0.0000 
     21 N21        33.5515   39.5037   24.8493 N.pl3     1 UNK         0.0000 
     22 C22        33.0326   38.8504   26.0442 C.3       1 UNK         0.0000 
     23 C23        31.4988   38.8068   26.0424 C.3       1 UNK         0.0000 
     24 C24        30.9892   38.1529   27.3378 C.3       1 UNK         0.0000 
     25 O25        31.4825   38.8627   28.4691 O.3       1 UNK         0.0000 
     26 C26        32.9035   38.8579   28.5588 C.3       1 UNK         0.0000 
     27 H27        35.7604   37.6200   19.4779 H         1 UNK         0.0000 
     28 H28        35.4683   39.7296   20.9127 H         1 UNK         0.0000 
     29 H29        32.7071   33.8985   22.8651 H         1 UNK         0.0000 
     30 H30        33.7080   34.7028   24.0714 H         1 UNK         0.0000 
     31 H31        32.2108   35.4409   23.4994 H         1 UNK         0.0000 
     32 H32        34.5954   39.5419   27.3851 H         1 UNK         0.0000 
     33 H33        33.1935   40.5928   27.3234 H         1 UNK         0.0000 
     34 H34        34.8749   35.4820   16.4973 H         1 UNK         0.0000 
     35 H35        38.7330   36.9835   15.3193 H         1 UNK         0.0000 
     36 H36        36.3830   36.4040   14.7507 H         1 UNK         0.0000 
     37 H37        39.5825   36.6103   17.6281 H         1 UNK         0.0000 
     38 H38        38.0635   35.7238   19.3847 H         1 UNK         0.0000 
     39 H39        33.7980   40.4789   24.9530 H         1 UNK         0.0000 
     40 H40        33.4090   37.8267   26.0679 H         1 UNK         0.0000 
     41 H41        31.1007   39.8178   25.9566 H         1 UNK         0.0000 
     42 H42        31.1334   38.2508   25.1782 H         1 UNK         0.0000 
     43 H43        29.9009   38.1662   27.3675 H         1 UNK         0.0000 
     44 H44        31.2938   37.1068   27.3914 H         1 UNK         0.0000 
     45 H45        33.2710   37.8346   28.6511 H         1 UNK         0.0000 
     46 H46        33.1993   39.3862   29.4654 H         1 UNK         0.0000 
@<TRIPOS>BOND
     1    1    7 1    
     2    1    8 1    
     3    2    4 ar   
     4    2    7 ar   
     5    2   27 1    
     6    3    4 ar   
     7    3   19 ar   
     8    3   20 ar   
     9    4    5 ar   
    10    5   18 ar   
    11    5   28 1    
    12    6   18 ar   
    13    6   20 ar   
    14    6   21 1    
    15    7   16 ar   
    16    8   11 ar   
    17    8   17 ar   
    18    9   19 1    
    19    9   29 1    
    20    9   30 1    
    21    9   31 1    
    22   10   22 1    
    23   10   26 1    
    24   10   32 1    
    25   10   33 1    
    26   11   13 ar   
    27   11   34 1    
    28   12   13 ar   
    29   12   14 ar   
    30   12   35 1    
    31   13   36 1    
    32   14   17 ar   
    33   14   37 1    
    34   15   16 2    
    35   16   19 ar   
    36   17   38 1    
    37   21   22 1    
    38   21   39 1    
    39   22   23 1    
    40   22   40 1    
    41   23   24 1    
    42   23   41 1    
    43   23   42 1    
    44   24   25 1    
    45   24   43 1    
    46   24   44 1    
    47   25   26 1    
    48   26   45 1    
    49   26   46 1    
@<TRIPOS>SUBSTRUCTURE
     1 UNK         1 GROUP             0       ****    0 ROOT    
