@<TRIPOS>MOLECULE
p38a_2gg
48   51    1
SMALL
USER_CHARGES


@<TRIPOS>ATOM
      1 C1         38.2632   36.7144   17.0134 C.ar      1 UNK         0.0000 
      2 C2         34.5448   34.9770   21.1828 C.ar      1 UNK         0.0000 
      3 C3         37.5969   36.1886   18.1373 C.ar      1 UNK         0.0000 
      4 C4         34.0445   38.9756   23.7378 C.ar      1 UNK         0.0000 
      5 C5         34.8025   37.8108   21.4407 C.ar      1 UNK         0.0000 
      6 C6         35.2536   37.1252   20.2344 C.ar      1 UNK         0.0000 
      7 C7         37.6232   36.7427   15.7594 C.ar      1 UNK         0.0000 
      8 C8         36.3272   36.2163   15.6228 C.ar      1 UNK         0.0000 
      9 C9         35.6719   35.6684   16.7395 C.ar      1 UNK         0.0000 
     10 C10        34.3067   37.0366   22.5109 C.ar      1 UNK         0.0000 
     11 C11        34.8522   39.2088   21.6169 C.ar      1 UNK         0.0000 
     12 C12        35.1646   35.7815   20.1251 C.ar      1 UNK         0.0000 
     13 C13        36.2931   35.6640   18.0028 C.ar      1 UNK         0.0000 
     14 C14        33.6690   34.8315   23.4618 C.3       1 UNK         0.0000 
     15 F15        38.1961   36.1968   19.3280 F         1 UNK         0.0000 
     16 O16        35.6498   35.0616   19.0536 O.3       1 UNK         0.0000 
     17 N17        34.4789   39.7925   22.7772 N.ar      1 UNK         0.0000 
     18 O18        34.3290   33.7761   21.0235 O.2       1 UNK         0.0000 
     19 N19        34.2121   35.6181   22.3415 N.pl3     1 UNK         0.0000 
     20 N20        33.9306   37.6499   23.6560 N.ar      1 UNK         0.0000 
     21 N21        33.6717   39.5652   24.9268 N.pl3     1 UNK         0.0000 
     22 H22        39.2585   37.1158   17.1165 H         1 UNK         0.0000 
     23 H23        35.7026   37.7356   19.4667 H         1 UNK         0.0000 
     24 H24        35.8375   36.2249   14.6602 H         1 UNK         0.0000 
     25 H25        34.6916   35.2304   16.6228 H         1 UNK         0.0000 
     26 H26        35.2183   39.8565   20.8356 H         1 UNK         0.0000 
     27 H27        34.0543   35.1876   24.4176 H         1 UNK         0.0000 
     28 H28        32.5822   34.9190   23.4834 H         1 UNK         0.0000 
     29 H29        33.9197   33.7705   23.4230 H         1 UNK         0.0000 
     30 H30        33.7904   40.5685   24.9712 H         1 UNK         0.0000 
     31 F31        38.2365   37.2743   14.7019 F         1 UNK         0.0000 
     32 C32        32.3005   38.7924   28.3926 C.3       1 UNK         0.0000 
     33 C33        32.8106   39.6388   27.2153 C.3       1 UNK         0.0000 
     34 C34        33.1506   38.7518   26.0069 C.3       1 UNK         0.0000 
     35 C35        34.1728   37.6694   26.3893 C.3       1 UNK         0.0000 
     36 C36        33.6627   36.8230   27.5666 C.3       1 UNK         0.0000 
     37 H37        31.3343   38.3084   28.1113 H         1 UNK         0.0000 
     38 H38        32.0921   39.4486   29.2726 H         1 UNK         0.0000 
     39 H39        33.7214   40.2029   27.5303 H         1 UNK         0.0000 
     40 H40        32.0411   40.3965   26.9283 H         1 UNK         0.0000 
     41 H41        32.2190   38.2662   25.6285 H         1 UNK         0.0000 
     42 H42        34.3813   37.0132   25.5094 H         1 UNK         0.0000 
     43 H43        35.1389   38.1535   26.6707 H         1 UNK         0.0000 
     44 H44        32.7520   36.2589   27.2517 H         1 UNK         0.0000 
     45 H45        34.4322   36.0653   27.8536 H         1 UNK         0.0000 
     46 S46        33.3316   37.7073   28.7960 S.o2      1 UNK         0.0000 
     47 O47        34.5778   38.3960   29.2065 O.2       1 UNK         0.0000 
     48 O48        32.7013   36.8428   29.8209 O.2       1 UNK         0.0000 
@<TRIPOS>BOND
     1    1    3 ar   
     2    1    7 ar   
     3    1   22 1    
     4    2   12 ar   
     5    2   18 2    
     6    2   19 ar   
     7    3   13 ar   
     8    3   15 1    
     9    4   17 ar   
    10    4   20 ar   
    11    4   21 1    
    12    5    6 ar   
    13    5   10 ar   
    14    5   11 ar   
    15    6   12 ar   
    16    6   23 1    
    17    7    8 ar   
    18    7   31 1    
    19    8    9 ar   
    20    8   24 1    
    21    9   13 ar   
    22    9   25 1    
    23   10   19 ar   
    24   10   20 ar   
    25   11   17 ar   
    26   11   26 1    
    27   12   16 1    
    28   13   16 1    
    29   14   19 1    
    30   14   27 1    
    31   14   28 1    
    32   14   29 1    
    33   21   30 1    
    34   21   34 1    
    35   32   33 1    
    36   32   37 1    
    37   32   38 1    
    38   32   46 1    
    39   33   34 1    
    40   33   39 1    
    41   33   40 1    
    42   34   35 1    
    43   34   41 1    
    44   35   36 1    
    45   35   42 1    
    46   35   43 1    
    47   36   44 1    
    48   36   45 1    
    49   36   46 1    
    50   46   47 2    
    51   46   48 2    
@<TRIPOS>SUBSTRUCTURE
     1 UNK         1 GROUP             0       ****    0 ROOT    
