@<TRIPOS>MOLECULE
p38a_3flq
47   49    1
SMALL
USER_CHARGES


@<TRIPOS>ATOM
      1 C1         34.7622   38.7439   23.9476 C.ar      1 UNK         0.0000 
      2 C2         35.2499   37.4721   21.6405 C.ar      1 UNK         0.0000 
      3 C3         35.5348   36.7418   20.4146 C.ar      1 UNK         0.0000 
      4 C4         35.0227   36.7418   22.8250 C.ar      1 UNK         0.0000 
      5 C5         35.5320   35.3906   20.3880 C.ar      1 UNK         0.0000 
      6 C6         33.7846   38.8689   26.3037 C.3       1 UNK         0.0000 
      7 C7         34.5670   39.3018   27.5511 C.3       1 UNK         0.0000 
      8 C8         31.2859   36.7201   25.6423 C.3       1 UNK         0.0000 
      9 N9         35.0422   35.3092   22.7534 N.pl3     1 UNK         0.0000 
     10 C10        32.3083   39.3132   26.3897 C.3       1 UNK         0.0000 
     11 F11        37.8707   37.0007   14.6632 F         1 UNK         0.0000 
     12 C12        37.3947   36.4157   15.7863 C.ar      1 UNK         0.0000 
     13 C13        36.1114   35.8372   15.7886 C.ar      1 UNK         0.0000 
     14 C14        35.6038   35.2536   16.9651 C.ar      1 UNK         0.0000 
     15 C15        38.1736   36.4029   16.9581 C.ar      1 UNK         0.0000 
     16 C16        37.6618   35.8347   18.1396 C.ar      1 UNK         0.0000 
     17 F17        38.4005   35.8692   19.2738 F         1 UNK         0.0000 
     18 C18        36.3715   35.2572   18.1466 C.ar      1 UNK         0.0000 
     19 O19        35.8696   34.6526   19.2728 O.3       1 UNK         0.0000 
     20 C20        35.1741   34.6161   21.5814 C.ar      1 UNK         0.0000 
     21 O21        34.9911   33.3993   21.5227 O.2       1 UNK         0.0000 
     22 C22        35.2021   38.8782   21.7163 C.ar      1 UNK         0.0000 
     23 N23        34.9714   39.5160   22.8825 N.ar      1 UNK         0.0000 
     24 N24        34.7792   37.4089   23.9779 N.ar      1 UNK         0.0000 
     25 C25        34.8399   34.5573   24.0019 C.3       1 UNK         0.0000 
     26 N26        34.4255   39.4035   25.1103 N.pl3     1 UNK         0.0000 
     27 S27        31.1922   38.4913   25.1558 S.o2      1 UNK         0.0000 
     28 O28        29.8236   38.9620   25.4069 O.2       1 UNK         0.0000 
     29 O29        31.7563   38.6165   23.8041 O.2       1 UNK         0.0000 
     30 H30        35.7861   37.3321   19.5486 H         1 UNK         0.0000 
     31 H31        33.8193   37.7810   26.2763 H         1 UNK         0.0000 
     32 H32        35.6071   38.9786   27.4924 H         1 UNK         0.0000 
     33 H33        34.5610   40.3853   27.6733 H         1 UNK         0.0000 
     34 H34        34.1393   38.8652   28.4538 H         1 UNK         0.0000 
     35 H35        30.5644   36.1528   25.0545 H         1 UNK         0.0000 
     36 H36        32.2855   36.3331   25.4509 H         1 UNK         0.0000 
     37 H37        31.0443   36.6182   26.6999 H         1 UNK         0.0000 
     38 H38        31.9029   39.0851   27.3757 H         1 UNK         0.0000 
     39 H39        32.2151   40.3909   26.2613 H         1 UNK         0.0000 
     40 H40        35.5110   35.8478   14.8913 H         1 UNK         0.0000 
     41 H41        34.6201   34.8071   16.9608 H         1 UNK         0.0000 
     42 H42        39.1521   36.8577   16.9609 H         1 UNK         0.0000 
     43 H43        35.3678   39.4918   20.8442 H         1 UNK         0.0000 
     44 H44        35.2765   33.5576   23.9769 H         1 UNK         0.0000 
     45 H45        35.3035   35.0572   24.8531 H         1 UNK         0.0000 
     46 H46        33.7742   34.4569   24.2090 H         1 UNK         0.0000 
     47 H47        34.4408   40.4123   25.0493 H         1 UNK         0.0000 
@<TRIPOS>BOND
     1    1   23 ar   
     2    1   24 ar   
     3    1   26 1    
     4    2    3 ar   
     5    2    4 ar   
     6    2   22 ar   
     7    3    5 ar   
     8    3   30 1    
     9    4    9 ar   
    10    4   24 ar   
    11    5   19 1    
    12    5   20 ar   
    13    6    7 1    
    14    6   10 1    
    15    6   26 1    
    16    6   31 1    
    17    7   32 1    
    18    7   33 1    
    19    7   34 1    
    20    8   27 1    
    21    8   35 1    
    22    8   36 1    
    23    8   37 1    
    24    9   20 ar   
    25    9   25 1    
    26   10   27 1    
    27   10   38 1    
    28   10   39 1    
    29   11   12 1    
    30   12   13 ar   
    31   12   15 ar   
    32   13   14 ar   
    33   13   40 1    
    34   14   18 ar   
    35   14   41 1    
    36   15   16 ar   
    37   15   42 1    
    38   16   17 1    
    39   16   18 ar   
    40   18   19 1    
    41   20   21 2    
    42   22   23 ar   
    43   22   43 1    
    44   25   44 1    
    45   25   45 1    
    46   25   46 1    
    47   26   47 1    
    48   27   28 2    
    49   27   29 2    
@<TRIPOS>SUBSTRUCTURE
     1 UNK         1 GROUP             0       ****    0 ROOT    
