@<TRIPOS>MOLECULE
p38a_2s
54   57    1
SMALL
USER_CHARGES


@<TRIPOS>ATOM
      1 C1         38.2632   36.7144   17.0134 C.ar      1 UNK         0.0000 
      2 C2         34.5448   34.9770   21.1828 C.ar      1 UNK         0.0000 
      3 C3         37.5969   36.1886   18.1373 C.ar      1 UNK         0.0000 
      4 C4         34.0445   38.9756   23.7378 C.ar      1 UNK         0.0000 
      5 C5         34.8025   37.8108   21.4407 C.ar      1 UNK         0.0000 
      6 C6         35.2536   37.1252   20.2344 C.ar      1 UNK         0.0000 
      7 C7         37.6232   36.7427   15.7594 C.ar      1 UNK         0.0000 
      8 C8         36.3272   36.2163   15.6228 C.ar      1 UNK         0.0000 
      9 C9         35.6719   35.6684   16.7395 C.ar      1 UNK         0.0000 
     10 C10        34.3067   37.0366   22.5109 C.ar      1 UNK         0.0000 
     11 C11        34.8522   39.2088   21.6169 C.ar      1 UNK         0.0000 
     12 C12        35.1646   35.7815   20.1251 C.ar      1 UNK         0.0000 
     13 C13        36.2931   35.6640   18.0028 C.ar      1 UNK         0.0000 
     14 F14        38.1961   36.1968   19.3280 F         1 UNK         0.0000 
     15 O15        35.6498   35.0616   19.0536 O.3       1 UNK         0.0000 
     16 N16        34.4789   39.7925   22.7772 N.ar      1 UNK         0.0000 
     17 O17        34.3290   33.7761   21.0235 O.2       1 UNK         0.0000 
     18 N18        34.2121   35.6181   22.3415 N.pl3     1 UNK         0.0000 
     19 N19        33.9306   37.6499   23.6560 N.ar      1 UNK         0.0000 
     20 N20        33.6717   39.5652   24.9268 N.pl3     1 UNK         0.0000 
     21 H21        39.2585   37.1158   17.1165 H         1 UNK         0.0000 
     22 H22        35.7026   37.7356   19.4667 H         1 UNK         0.0000 
     23 H23        35.8375   36.2249   14.6602 H         1 UNK         0.0000 
     24 H24        34.6916   35.2304   16.6228 H         1 UNK         0.0000 
     25 H25        35.2183   39.8565   20.8356 H         1 UNK         0.0000 
     26 H26        33.7904   40.5685   24.9712 H         1 UNK         0.0000 
     27 F27        38.2365   37.2743   14.7019 F         1 UNK         0.0000 
     28 C28        32.3864   39.3434   28.5029 C.3       1 UNK         0.0000 
     29 C29        32.8826   39.9949   27.2021 C.3       1 UNK         0.0000 
     30 C30        33.1625   38.9326   26.1269 C.3       1 UNK         0.0000 
     31 C31        34.1671   37.8864   26.6357 C.3       1 UNK         0.0000 
     32 C32        33.6709   37.2349   27.9364 C.3       1 UNK         0.0000 
     33 O33        33.3911   38.2971   29.0117 O.3       1 UNK         0.0000 
     34 H34        31.3999   38.8533   28.3203 H         1 UNK         0.0000 
     35 H35        32.2221   40.1260   29.2833 H         1 UNK         0.0000 
     36 H36        33.8171   40.5707   27.4078 H         1 UNK         0.0000 
     37 H37        32.1249   40.7262   26.8283 H         1 UNK         0.0000 
     38 H38        32.2074   38.4259   25.8477 H         1 UNK         0.0000 
     39 H39        34.3315   37.1039   25.8553 H         1 UNK         0.0000 
     40 H40        35.1537   38.3766   26.8183 H         1 UNK         0.0000 
     41 H41        32.7366   36.6591   27.7308 H         1 UNK         0.0000 
     42 H42        34.4286   36.5036   28.3103 H         1 UNK         0.0000 
     43 C43        33.6777   34.8441   23.4439 C.3       1 UNK         0.0000 
     44 H44        33.4618   35.5234   24.3064 H         1 UNK         0.0000 
     45 H45        32.7328   34.3390   23.1214 H         1 UNK         0.0000 
     46 C46        34.6979   33.7917   23.8682 C.3       1 UNK         0.0000 
     47 O47        34.9700   32.9357   22.7813 O.3       1 UNK         0.0000 
     48 H48        34.1349   32.5312   22.5457 H         1 UNK         0.0000 
     49 C49        34.1351   32.9773   25.0295 C.3       1 UNK         0.0000 
     50 H50        33.1902   32.4720   24.7073 H         1 UNK         0.0000 
     51 H51        33.9192   33.6570   25.8917 H         1 UNK         0.0000 
     52 H52        35.6184   34.2833   24.1829 H         1 UNK         0.0000 
     53 O53        35.0777   32.0050   25.4221 O.3       1 UNK         0.0000 
     54 H54        35.8619   32.4861   25.6866 H         1 UNK         0.0000 
@<TRIPOS>BOND
     1    1    3 ar   
     2    1    7 ar   
     3    1   21 1    
     4    2   12 ar   
     5    2   17 2    
     6    2   18 ar   
     7    3   13 ar   
     8    3   14 1    
     9    4   16 ar   
    10    4   19 ar   
    11    4   20 1    
    12    5    6 ar   
    13    5   10 ar   
    14    5   11 ar   
    15    6   12 ar   
    16    6   22 1    
    17    7    8 ar   
    18    7   27 1    
    19    8    9 ar   
    20    8   23 1    
    21    9   13 ar   
    22    9   24 1    
    23   10   18 ar   
    24   10   19 ar   
    25   11   16 ar   
    26   11   25 1    
    27   12   15 1    
    28   13   15 1    
    29   18   43 1    
    30   20   26 1    
    31   20   30 1    
    32   28   29 1    
    33   28   33 1    
    34   28   34 1    
    35   28   35 1    
    36   29   30 1    
    37   29   36 1    
    38   29   37 1    
    39   30   31 1    
    40   30   38 1    
    41   31   32 1    
    42   31   39 1    
    43   31   40 1    
    44   32   33 1    
    45   32   41 1    
    46   32   42 1    
    47   43   44 1    
    48   43   45 1    
    49   43   46 1    
    50   46   47 1    
    51   46   49 1    
    52   46   52 1    
    53   47   48 1    
    54   49   50 1    
    55   49   51 1    
    56   49   53 1    
    57   53   54 1    
@<TRIPOS>SUBSTRUCTURE
     1 UNK         1 GROUP             0       ****    0 ROOT    
