@<TRIPOS>MOLECULE
p38a_2u
64   68    1
SMALL
USER_CHARGES


@<TRIPOS>ATOM
      1 C1         38.2632   36.7144   17.0134 C.ar      1 UNK         0.0000 
      2 C2         34.5448   34.9770   21.1828 C.ar      1 UNK         0.0000 
      3 C3         37.5969   36.1886   18.1373 C.ar      1 UNK         0.0000 
      4 C4         34.0445   38.9756   23.7378 C.ar      1 UNK         0.0000 
      5 C5         34.8025   37.8108   21.4407 C.ar      1 UNK         0.0000 
      6 C6         35.2536   37.1252   20.2344 C.ar      1 UNK         0.0000 
      7 C7         37.6232   36.7427   15.7594 C.ar      1 UNK         0.0000 
      8 C8         36.3272   36.2163   15.6228 C.ar      1 UNK         0.0000 
      9 C9         35.6719   35.6684   16.7395 C.ar      1 UNK         0.0000 
     10 C10        34.3067   37.0366   22.5109 C.ar      1 UNK         0.0000 
     11 C11        34.8522   39.2088   21.6169 C.ar      1 UNK         0.0000 
     12 C12        35.1646   35.7815   20.1251 C.ar      1 UNK         0.0000 
     13 C13        36.2931   35.6640   18.0028 C.ar      1 UNK         0.0000 
     14 F14        38.1961   36.1968   19.3280 F         1 UNK         0.0000 
     15 O15        35.6498   35.0616   19.0536 O.3       1 UNK         0.0000 
     16 N16        34.4789   39.7925   22.7772 N.ar      1 UNK         0.0000 
     17 O17        34.3290   33.7761   21.0235 O.2       1 UNK         0.0000 
     18 N18        34.2121   35.6181   22.3415 N.pl3     1 UNK         0.0000 
     19 N19        33.9306   37.6499   23.6560 N.ar      1 UNK         0.0000 
     20 N20        33.6717   39.5652   24.9268 N.pl3     1 UNK         0.0000 
     21 H21        39.2585   37.1158   17.1165 H         1 UNK         0.0000 
     22 H22        35.7026   37.7356   19.4667 H         1 UNK         0.0000 
     23 H23        35.8375   36.2249   14.6602 H         1 UNK         0.0000 
     24 H24        34.6916   35.2304   16.6228 H         1 UNK         0.0000 
     25 H25        35.2183   39.8565   20.8356 H         1 UNK         0.0000 
     26 H26        33.7904   40.5685   24.9712 H         1 UNK         0.0000 
     27 F27        38.2365   37.2743   14.7019 F         1 UNK         0.0000 
     28 C28        32.3864   39.3434   28.5029 C.3       1 UNK         0.0000 
     29 C29        32.8826   39.9949   27.2021 C.3       1 UNK         0.0000 
     30 C30        33.1625   38.9326   26.1269 C.3       1 UNK         0.0000 
     31 C31        34.1671   37.8864   26.6357 C.3       1 UNK         0.0000 
     32 C32        33.6709   37.2349   27.9364 C.3       1 UNK         0.0000 
     33 O33        33.3911   38.2971   29.0117 O.3       1 UNK         0.0000 
     34 H34        31.3999   38.8533   28.3203 H         1 UNK         0.0000 
     35 H35        32.2221   40.1260   29.2833 H         1 UNK         0.0000 
     36 H36        33.8171   40.5707   27.4078 H         1 UNK         0.0000 
     37 H37        32.1249   40.7262   26.8283 H         1 UNK         0.0000 
     38 H38        32.2074   38.4259   25.8477 H         1 UNK         0.0000 
     39 H39        34.3315   37.1039   25.8553 H         1 UNK         0.0000 
     40 H40        35.1537   38.3766   26.8183 H         1 UNK         0.0000 
     41 H41        32.7366   36.6591   27.7308 H         1 UNK         0.0000 
     42 H42        34.4286   36.5036   28.3103 H         1 UNK         0.0000 
     43 C43        32.9681   35.0145   25.8880 C.3       1 UNK         0.0000 
     44 C44        33.4304   35.8030   24.6521 C.3       1 UNK         0.0000 
     45 C45        33.7352   34.8576   23.4790 C.3       1 UNK         0.0000 
     46 C46        34.7786   33.8023   23.8798 C.3       1 UNK         0.0000 
     47 C47        34.3163   33.0139   25.1157 C.3       1 UNK         0.0000 
     48 H48        31.9966   34.5109   25.6656 H         1 UNK         0.0000 
     49 H49        32.7852   35.7135   26.7403 H         1 UNK         0.0000 
     50 H50        34.3472   36.3879   24.9060 H         1 UNK         0.0000 
     51 H51        32.6455   36.5404   24.3542 H         1 UNK         0.0000 
     52 H52        32.7949   34.3477   23.1587 H         1 UNK         0.0000 
     53 H53        34.9615   33.1034   23.0275 H         1 UNK         0.0000 
     54 H54        35.7500   34.3060   24.1023 H         1 UNK         0.0000 
     55 H55        33.3996   32.4290   24.8619 H         1 UNK         0.0000 
     56 H56        35.1011   32.2765   25.4136 H         1 UNK         0.0000 
     57 N57        33.9817   33.9636   26.2255 N.pl3     1 UNK         0.0000 
     58 S58        34.6175   33.8688   27.5807 S.o2      1 UNK         0.0000 
     59 O59        35.5626   32.7276   27.5688 O.2       1 UNK         0.0000 
     60 O60        33.5397   33.8069   28.5956 O.2       1 UNK         0.0000 
     61 C61        35.4031   35.1261   27.8086 C.3       1 UNK         0.0000 
     62 H62        34.7082   36.0030   27.8214 H         1 UNK         0.0000 
     63 H63        35.9376   35.0594   28.7893 H         1 UNK         0.0000 
     64 H64        36.1496   35.2538   26.9849 H         1 UNK         0.0000 
@<TRIPOS>BOND
     1    1    3 ar   
     2    1    7 ar   
     3    1   21 1    
     4    2   12 ar   
     5    2   17 2    
     6    2   18 ar   
     7    3   13 ar   
     8    3   14 1    
     9    4   16 ar   
    10    4   19 ar   
    11    4   20 1    
    12    5    6 ar   
    13    5   10 ar   
    14    5   11 ar   
    15    6   12 ar   
    16    6   22 1    
    17    7    8 ar   
    18    7   27 1    
    19    8    9 ar   
    20    8   23 1    
    21    9   13 ar   
    22    9   24 1    
    23   10   18 ar   
    24   10   19 ar   
    25   11   16 ar   
    26   11   25 1    
    27   12   15 1    
    28   13   15 1    
    29   18   45 1    
    30   20   26 1    
    31   20   30 1    
    32   28   29 1    
    33   28   33 1    
    34   28   34 1    
    35   28   35 1    
    36   29   30 1    
    37   29   36 1    
    38   29   37 1    
    39   30   31 1    
    40   30   38 1    
    41   31   32 1    
    42   31   39 1    
    43   31   40 1    
    44   32   33 1    
    45   32   41 1    
    46   32   42 1    
    47   43   44 1    
    48   43   48 1    
    49   43   49 1    
    50   43   57 1    
    51   44   45 1    
    52   44   50 1    
    53   44   51 1    
    54   45   46 1    
    55   45   52 1    
    56   46   47 1    
    57   46   53 1    
    58   46   54 1    
    59   47   55 1    
    60   47   56 1    
    61   47   57 1    
    62   57   58 1    
    63   58   59 2    
    64   58   60 2    
    65   58   61 1    
    66   61   62 1    
    67   61   63 1    
    68   61   64 1    
@<TRIPOS>SUBSTRUCTURE
     1 UNK         1 GROUP             0       ****    0 ROOT    
