@<TRIPOS>MOLECULE
p38a_3fmh
46   49    1
SMALL
USER_CHARGES


@<TRIPOS>ATOM
      1 F1         38.1822   37.2781   14.6780 F         1 UNK         0.0000 
      2 C2         37.6121   36.6927   15.7561 C.ar      1 UNK         0.0000 
      3 C3         36.3306   36.1234   15.6494 C.ar      1 UNK         0.0000 
      4 C4         35.7306   35.5282   16.7729 C.ar      1 UNK         0.0000 
      5 C5         38.2935   36.6633   16.9880 C.ar      1 UNK         0.0000 
      6 C6         37.6845   36.0889   18.1187 C.ar      1 UNK         0.0000 
      7 F7         38.3244   36.1063   19.3118 F         1 UNK         0.0000 
      8 C8         36.3984   35.5157   18.0135 C.ar      1 UNK         0.0000 
      9 O9         35.8110   34.8859   19.0798 O.3       1 UNK         0.0000 
     10 C10        35.2195   35.5980   20.0991 C.ar      1 UNK         0.0000 
     11 C11        34.4802   34.7957   21.0797 C.ar      1 UNK         0.0000 
     12 O12        34.3267   33.5841   20.9220 O.2       1 UNK         0.0000 
     13 N13        33.9629   35.4463   22.1618 N.pl3     1 UNK         0.0000 
     14 C14        33.2518   34.6745   23.1957 C.3       1 UNK         0.0000 
     15 C15        34.0492   36.8642   22.3395 C.ar      1 UNK         0.0000 
     16 N16        33.5187   37.4796   23.4172 N.ar      1 UNK         0.0000 
     17 C17        35.3129   36.9423   20.2265 C.ar      1 UNK         0.0000 
     18 C18        34.7216   37.6302   21.3651 C.ar      1 UNK         0.0000 
     19 C19        34.8051   39.0231   21.5733 C.ar      1 UNK         0.0000 
     20 N20        34.2844   39.6080   22.6737 N.ar      1 UNK         0.0000 
     21 C21        33.6693   38.7965   23.5368 C.ar      1 UNK         0.0000 
     22 N22        33.1669   39.3731   24.6802 N.pl3     1 UNK         0.0000 
     23 C23        32.3829   38.7485   25.7392 C.3       1 UNK         0.0000 
     24 C24        31.2835   39.7010   26.2143 C.3       1 UNK         0.0000 
     25 C25        33.2806   38.2181   26.8795 C.3       1 UNK         0.0000 
     26 N26        34.1195   39.2305   27.5029 N.pl3     1 UNK         0.0000 
     27 N27        35.4196   39.3870   27.1864 N.2       1 UNK         0.0000 
     28 C28        35.7283   40.3837   28.0005 C.ar      1 UNK         0.0000 
     29 N29        34.6917   40.8108   28.7755 N.2       1 UNK         0.0000 
     30 N30        33.6769   40.0724   28.4600 N.2       1 UNK         0.0000 
     31 H31        35.8087   36.1396   14.7051 H         1 UNK         0.0000 
     32 H32        34.7581   35.0717   16.6856 H         1 UNK         0.0000 
     33 H33        39.2725   37.1079   17.0714 H         1 UNK         0.0000 
     34 H34        33.5091   35.0233   24.1968 H         1 UNK         0.0000 
     35 H35        32.1747   34.7905   23.0693 H         1 UNK         0.0000 
     36 H36        33.4769   33.6071   23.1940 H         1 UNK         0.0000 
     37 H37        35.8510   37.5522   19.5179 H         1 UNK         0.0000 
     38 H38        35.3118   39.6636   20.8677 H         1 UNK         0.0000 
     39 H39        33.3603   40.3585   24.7950 H         1 UNK         0.0000 
     40 H40        31.8690   37.8864   25.3123 H         1 UNK         0.0000 
     41 H41        30.6714   39.2416   26.9915 H         1 UNK         0.0000 
     42 H42        31.6923   40.6282   26.6121 H         1 UNK         0.0000 
     43 H43        30.6253   39.9573   25.3848 H         1 UNK         0.0000 
     44 H44        32.6658   37.7582   27.6539 H         1 UNK         0.0000 
     45 H45        33.9263   37.4259   26.4972 H         1 UNK         0.0000 
     46 H46        36.7183   40.8135   28.0374 H         1 UNK         0.0000 
@<TRIPOS>BOND
     1    1    2 1    
     2    2    3 ar   
     3    2    5 ar   
     4    3    4 ar   
     5    3   31 1    
     6    4    8 ar   
     7    4   32 1    
     8    5    6 ar   
     9    5   33 1    
    10    6    7 1    
    11    6    8 ar   
    12    8    9 1    
    13    9   10 1    
    14   10   11 ar   
    15   10   17 ar   
    16   11   12 2    
    17   11   13 ar   
    18   13   14 1    
    19   13   15 ar   
    20   14   34 1    
    21   14   35 1    
    22   14   36 1    
    23   15   16 ar   
    24   15   18 ar   
    25   16   21 ar   
    26   17   18 ar   
    27   17   37 1    
    28   18   19 ar   
    29   19   20 ar   
    30   19   38 1    
    31   20   21 ar   
    32   21   22 1    
    33   22   23 1    
    34   22   39 1    
    35   23   24 1    
    36   23   25 1    
    37   23   40 1    
    38   24   41 1    
    39   24   42 1    
    40   24   43 1    
    41   25   26 1    
    42   25   44 1    
    43   25   45 1    
    44   26   27 ar   
    45   26   30 ar   
    46   27   28 ar   
    47   28   29 ar   
    48   28   46 1    
    49   29   30 ar   
@<TRIPOS>SUBSTRUCTURE
     1 UNK         1 GROUP             0       ****    0 ROOT    
