ejm_46
                    3D
 Schrodinger Suite 2021-2.
 36 38  0  0  1  0            999 V2000
   -3.3293   22.5988  -29.6631 C   0  0  0  0  0  0
   -3.5534   21.2514  -29.3113 C   0  0  0  0  0  0
   -2.8632   20.7119  -28.1988 C   0  0  0  0  0  0
   -5.3245   25.1116  -31.6048 C   0  0  0  0  0  0
   -4.0378   23.1674  -30.8564 C   0  0  0  0  0  0
   -5.9870   24.5545  -32.7186 C   0  0  0  0  0  0
   -6.7937   25.3971  -33.4916 C   0  0  0  0  0  0
   -2.3827   23.3563  -28.9359 C   0  0  0  0  0  0
   -1.9445   21.4797  -27.4683 C   0  0  0  0  0  0
   -1.6800   22.7948  -27.8623 C   0  0  0  0  0  0
   -4.5885   20.2479  -30.3076 Cl  0  0  0  0  0  0
   -4.1324   22.5228  -31.9012 O   0  0  0  0  0  0
   -4.5575   24.3844  -30.6896 N   0  0  0  0  0  0
   -6.9471   26.7077  -33.2275 N   0  0  0  0  0  0
   -6.3163   27.2531  -32.1644 C   0  0  0  0  0  0
   -5.5090   26.4651  -31.3159 C   0  0  0  0  0  0
   -6.5321   28.6209  -31.8736 N   0  0  0  0  0  0
   -5.6910   29.4657  -31.2455 C   0  0  0  0  0  0
   -4.5801   29.1563  -30.8258 O   0  0  0  0  0  0
   -6.2062   30.8502  -31.0897 C   0  0  0  0  0  0
   -5.5886   31.7266  -30.0083 C   0  0  0  0  0  0
   -5.2837   31.9904  -31.4563 C   0  0  0  0  0  0
   -2.0771   25.0098  -29.2931 Cl  0  0  0  0  0  0
   -2.9345   19.6779  -27.9277 H   0  0  0  0  0  0
   -5.9391   23.5089  -32.9880 H   0  0  0  0  0  0
   -7.3338   25.0152  -34.3439 H   0  0  0  0  0  0
   -1.4073   21.0394  -26.6422 H   0  0  0  0  0  0
   -0.9612   23.3918  -27.3177 H   0  0  0  0  0  0
   -4.3341   24.8754  -29.8333 H   0  0  0  0  0  0
   -5.0366   26.8720  -30.4342 H   0  0  0  0  0  0
   -7.4091   29.0085  -32.2007 H   0  0  0  0  0  0
   -7.2658   30.9873  -31.2905 H   0  0  0  0  0  0
   -4.7814   31.3177  -29.3975 H   0  0  0  0  0  0
   -6.2634   32.4136  -29.4957 H   0  0  0  0  0  0
   -5.7280   32.8712  -31.9029 H   0  0  0  0  0  0
   -4.2799   31.7502  -31.7982 H   0  0  0  0  0  0
  1  2  1  0  0  0
  1  5  1  0  0  0
  1  8  2  0  0  0
  2  3  2  0  0  0
  2 11  1  0  0  0
  3  9  1  0  0  0
  3 24  1  0  0  0
  4  6  2  0  0  0
  4 13  1  0  0  0
  4 16  1  0  0  0
  5 12  2  0  0  0
  5 13  1  0  0  0
  6  7  1  0  0  0
  6 25  1  0  0  0
  7 14  2  0  0  0
  7 26  1  0  0  0
  8 10  1  0  0  0
  8 23  1  0  0  0
  9 10  2  0  0  0
  9 27  1  0  0  0
 10 28  1  0  0  0
 13 29  1  0  0  0
 14 15  1  0  0  0
 15 16  2  0  0  0
 15 17  1  0  0  0
 16 30  1  0  0  0
 17 18  1  0  0  0
 17 31  1  0  0  0
 18 19  2  0  0  0
 18 20  1  0  0  0
 20 21  1  0  0  0
 20 22  1  0  0  0
 20 32  1  0  0  0
 21 22  1  0  0  0
 21 33  1  0  0  0
 21 34  1  0  0  0
 22 35  1  0  0  0
 22 36  1  0  0  0
M  END
> <i_m_stars>
0

> <s_m_entry_id>
765

> <s_m_entry_name>
Structure587

> <s_m_Source_Path>
C:\Users\yujiethinkpad\Desktop\05A\Tyk2

> <s_m_Source_File>
4gih.pdb

> <i_m_Source_File_Index>
1

> <s_pdb_PDB_TITLE>
TYK2 (JH1) IN COMPLEX WITH 2,6-DICHLORO-N-{2-[(CYCLOPROPYLCARBONYL) AMINO]PYRIDIN-4-YL}BENZAMIDE

> <s_pdb_PDB_ID>
4GIH

> <r_pdb_PDB_CRYST1_a>
36.165

> <r_pdb_PDB_CRYST1_b>
74.378

> <r_pdb_PDB_CRYST1_c>
105.855

> <r_pdb_PDB_CRYST1_alpha>
90

> <r_pdb_PDB_CRYST1_beta>
90

> <r_pdb_PDB_CRYST1_gamma>
90

> <s_pdb_PDB_CRYST1_Space_Group>
P 21 21 21

> <i_pdb_PDB_CRYST1_z>
4

> <s_pdb_PDB_CLASSIFICATION>
TRANSFERASE/TRANSFERASE INHIBITOR

> <s_pdb_PDB_DEPOSITION_DATE>
08-AUG-12

> <s_pdb_PDB_format_version>
3.30

> <r_pdb_PDB_R>
0.188

> <r_pdb_PDB_Rfree>
0.217

> <r_pdb_PDB_RESOLUTION>
2

> <s_pdb_PDB_EXPDTA>
X-RAY DIFFRACTION

> <r_pdb_PDB_EXPDTA_TEMPERATURE>
173

> <r_pdb_PDB_EXPDTA_PH>
6.5

> <s_pdb_PDB_REMARK_350_Biomolecule_1_Transform_1_Chains>
A

> <s_pdb_PDB_REMARK_350_Biomolecule_1_Transform_1_Matrix_1>
1.000000 0.000000 0.000000   0.000000;0.000000 1.000000 0.000000   0.000000;0.000000 0.000000 1.000000   0.000000

> <s_ppw_entry_id_backup>
569

> <b_ppw_prepared>
1

> <s_ppw_prepared_with_version>
2021-2

> <b_ppw_assigned_bond_orders>
1

> <b_ppw_added_hydrogens>
1

> <b_ppw_treated_metals>
1

> <b_ppw_created_disulfur>
1

> <s_ppw_het_states>
eJxdkrFuwzAMRH+F0JykIi06ibNl6lp0LDwYaaa6dgd3CIL8e0Ux7UX1dDhQeuKdr4FDR2/5k6ZpVxT7FZncQu4g938yRUiGFMgGMkEqJGgJtARaAk1BU9AUNAVNQVPQFDQFTQvN9H1935zv6xbDNq2NzBLE5AlVhq3GSM8TYGTomUll7P5N2J6MrD0kqQwcKdeV9BlFeIKCOjx+fjT04Y70OyHI36NntOAPk8oAVgvWymD04pVIZeAdJr2e2kAN2sLIzjpuMvYa7IH5142bJrbbWx4xO7wuw3Kmr/M0jMulK8ORPk7D+PQ5jwd6Xh/n6Z1O8/e0dCQHesk3hL6//QAzpqTk

> <s_m_source_file>
ligprep_co.maegz

> <i_m_source_file_index>
1

> <i_lp_mmshare_version>
54117

> <s_epik_input>
Q2xjMVtjSF1bY0hdW2NIXWMoQ2wpYzFDKD1PKVtOSF1jMltjSF1bY0hdbmMoW2NIXTIpW05IXUMoPU8pW0NIXTNbQ0gyXVtDSDJdMw==

> <s_epik_cmdline>
J2VwaWtfcHl0aG9uJywgJy1waCcsICc3LjAnLCAnLXRuJywgJzgnLCAnLW1hJywgJzUwMCcsICctaW1hZScsICc8aW5maWxlLm1hZT4nLCAnLW9tYWUnLCAnPG91dGZpbGUubWFlPic=

> <r_epik_Ionization_Penalty>
  0.0020

> <r_epik_Ionization_Penalty_Charging>
  0.0000

> <r_epik_Ionization_Penalty_Neutral>
  0.0020

> <r_epik_State_Penalty>
  0.0092

> <r_epik_Charging_Adjusted_Penalty>
0.00920207089186949

> <i_epik_Tot_Q>
0

> <i_epik_Tot_abs_Q>
0

> <i_f3d_flags>
0

> <s_lp_Force_Field>
S-OPLS

> <r_lp_Energy>
49.520606

> <b_lp_Chiralities_Consistent>
1

> <s_lp_Variant>
0000-1

> <s_m_job_name>
align_ligands_0658

> <s_i_glide_gridfile>
glide-grid_Tky

> <i_i_glide_lignum>
1

> <i_i_glide_rotatable_bonds>
6

> <r_i_docking_score>
-7.36178781606078

> <r_i_glide_ligand_efficiency>
-0.320077731133078

> <r_i_glide_ligand_efficiency_sa>
-0.910258489603797

> <r_i_glide_ligand_efficiency_ln>
-1.78014704692478

> <r_i_glide_gscore>
-7.37098781606078

> <r_i_glide_lipo>
-2.80829835880758

> <r_i_glide_hbond>
-0.44746381985731

> <r_i_glide_metal>
0

> <r_i_glide_rewards>
-2.3108841918975

> <r_i_glide_evdw>
-31.4836292266846

> <r_i_glide_ecoul>
-5.88556241989136

> <r_i_glide_erotb>
0.652674378819539

> <r_i_glide_esite>
0

> <r_i_glide_emodel>
-44.7169027395249

> <r_i_glide_energy>
-37.3691916465759

> <r_i_glide_einternal>
12.2128305435181

> <i_i_glide_confnum>
83

> <i_i_glide_posenum>
2

> <r_i_glide_eff_state_penalty>
0.0092

> <r_glide_shape_similarity>
0.91573828458786

> <i_phase_Input_Structure_Number>
16

> <i_phase_Structure_Number>
16

> <r_phase_Similarity_to_Reference>
1

> <i_phase_Reference_Structure>
16

> <s_phase_Alignment_Method>


> <s_phase_Alignment_Reason>


> <s_phase_Core_SMARTS>


> <r_m_RMSD_582>
0.146307743411202

> <r_m_RMSD_587>
0

> <r_m_RMS_In_Place_582>
0.657994979834524

> <s_m_subgroup_title>
align_ligands_0658

> <s_m_subgroupid>
align_ligands_0658

> <b_m_subgroup_collapsed>
0

$$$$
