5
                    3D
 Schrodinger Suite 2021-2.
 52 54  0  0  1  0            999 V2000
   16.3900  -15.7830   23.1600 N   0  3  0  0  0  0
   17.6570  -15.0120   23.1460 C   0  0  1  0  0  0
   17.4360  -13.6310   22.5680 C   0  0  0  0  0  0
   16.5060  -12.9450   23.0320 O   0  0  0  0  0  0
   18.1720  -14.9170   24.5950 C   0  0  0  0  0  0
   19.5920  -14.3710   24.7440 C   0  0  0  0  0  0
   20.6910  -14.9640   24.0890 C   0  0  0  0  0  0
   19.8220  -13.2490   25.5510 C   0  0  0  0  0  0
   21.9860  -14.4540   24.2350 C   0  0  0  0  0  0
   21.1010  -12.7410   25.6970 C   0  0  0  0  0  0
   22.1890  -13.3330   25.0460 C   0  0  0  0  0  0
   18.2450  -13.1710   21.5890 N   0  0  0  0  0  0
   18.0280  -11.8220   21.0620 C   0  0  2  0  0  0
   16.6090  -11.7290   20.5280 C   0  0  0  0  0  0
   16.2150  -12.7280   19.9260 O   0  0  0  0  0  0
   18.9440  -11.8950   19.8030 C   0  0  0  0  0  0
   20.1040  -12.7670   20.3170 C   0  0  0  0  0  0
   19.3760  -13.9390   21.0230 C   0  0  0  0  0  0
   15.9710  -10.5760   20.7540 N   0  0  0  0  0  0
   14.6590  -10.4300   20.1130 C   0  0  0  0  0  0
   13.5670  -10.4920   21.1900 C   0  0  0  0  0  0
   13.3860   -9.3970   22.0370 C   0  0  0  0  0  0
   12.4020   -9.4430   23.0150 C   0  0  0  0  0  0
   11.5890  -10.5670   23.1640 C   0  0  0  0  0  0
   11.7790  -11.6630   22.3090 C   0  0  0  0  0  0
   12.7700  -11.6130   21.3270 C   0  0  0  0  0  0
   16.5577  -16.7001   23.5485 H   0  0  0  0  0  0
   15.7068  -15.2986   23.7245 H   0  0  0  0  0  0
   16.0415  -15.8761   22.2166 H   0  0  0  0  0  0
   18.3915  -15.5411   22.5388 H   0  0  0  0  0  0
   18.1124  -15.8992   25.0639 H   0  0  0  0  0  0
   17.4870  -14.3048   25.1816 H   0  0  0  0  0  0
   20.5421  -15.8291   23.4599 H   0  0  0  0  0  0
   18.9984  -12.7748   26.0640 H   0  0  0  0  0  0
   22.8128  -14.9256   23.7247 H   0  0  0  0  0  0
   21.2704  -11.8756   26.3205 H   0  0  0  0  0  0
   23.1825  -12.9275   25.1679 H   0  0  0  0  0  0
   18.2931  -11.0260   21.7579 H   0  0  0  0  0  0
   19.3198  -10.8974   19.5756 H   0  0  0  0  0  0
   18.4200  -12.4280   19.0097 H   0  0  0  0  0  0
   20.6780  -12.2044   21.0533 H   0  0  0  0  0  0
   20.6675  -13.1531   19.4676 H   0  0  0  0  0  0
   18.9933  -14.6233   20.2658 H   0  0  0  0  0  0
   20.0003  -14.3005   21.8401 H   0  0  0  0  0  0
   16.3965   -9.8692   21.3367 H   0  0  0  0  0  0
   14.5114  -11.2405   19.3993 H   0  0  0  0  0  0
   14.6099   -9.4689   19.6011 H   0  0  0  0  0  0
   14.0095   -8.5218   21.9288 H   0  0  0  0  0  0
   12.2567   -8.6005   23.6749 H   0  0  0  0  0  0
   10.8269  -10.5846   23.9291 H   0  0  0  0  0  0
   11.1596  -12.5417   22.4117 H   0  0  0  0  0  0
   12.9114  -12.4595   20.6714 H   0  0  0  0  0  0
  1  2  1  0  0  0
  1 27  1  0  0  0
  1 28  1  0  0  0
  1 29  1  0  0  0
  2  3  1  0  0  0
  2  5  1  0  0  0
  2 30  1  0  0  0
  3  4  2  0  0  0
  3 12  1  0  0  0
  5  6  1  0  0  0
  5 31  1  0  0  0
  5 32  1  0  0  0
  6  7  2  0  0  0
  6  8  1  0  0  0
  7  9  1  0  0  0
  7 33  1  0  0  0
  8 10  2  0  0  0
  8 34  1  0  0  0
  9 11  2  0  0  0
  9 35  1  0  0  0
 10 11  1  0  0  0
 10 36  1  0  0  0
 11 37  1  0  0  0
 12 13  1  0  0  0
 12 18  1  0  0  0
 13 14  1  0  0  0
 13 16  1  0  0  0
 13 38  1  0  0  0
 14 15  2  0  0  0
 14 19  1  0  0  0
 16 17  1  0  0  0
 16 39  1  0  0  0
 16 40  1  0  0  0
 17 18  1  0  0  0
 17 41  1  0  0  0
 17 42  1  0  0  0
 18 43  1  0  0  0
 18 44  1  0  0  0
 19 20  1  0  0  0
 19 45  1  0  0  0
 20 21  1  0  0  0
 20 46  1  0  0  0
 20 47  1  0  0  0
 21 22  2  0  0  0
 21 26  1  0  0  0
 22 23  1  0  0  0
 22 48  1  0  0  0
 23 24  2  0  0  0
 23 49  1  0  0  0
 24 25  1  0  0  0
 24 50  1  0  0  0
 25 26  2  0  0  0
 25 51  1  0  0  0
 26 52  1  0  0  0
M  CHG  1   1   1
M  END
> <i_m_stars>
0

> <s_m_entry_id>
676

> <s_m_entry_name>
Structure665

> <s_m_Source_Path>
C:\Users\yujiethinkpad\Desktop\05A\Thrombin\prepwizard_workdir

> <s_m_Source_File>
prepwizard-protassign_1-out.mae

> <i_m_Source_File_Index>
1

> <s_pdb_PDB_TITLE>
EXPLORING THROMBIN S1-POCKET

> <s_pdb_PDB_ID>
2ZFF

> <r_pdb_PDB_CRYST1_a>
70.1

> <r_pdb_PDB_CRYST1_b>
71.5

> <r_pdb_PDB_CRYST1_c>
72.5

> <r_pdb_PDB_CRYST1_alpha>
90

> <r_pdb_PDB_CRYST1_beta>
100.3

> <r_pdb_PDB_CRYST1_gamma>
90

> <s_pdb_PDB_CRYST1_Space_Group>
C 1 2 1

> <i_pdb_PDB_CRYST1_z>
4

> <s_pdb_PDB_CLASSIFICATION>
BLOOD CLOTTING/HYDROLASE INHIBITOR

> <s_pdb_PDB_DEPOSITION_DATE>
04-JAN-08

> <s_pdb_PDB_format_version>
3.30

> <r_pdb_PDB_R>
0.156

> <r_pdb_PDB_Rfree>
0.26

> <r_pdb_PDB_RESOLUTION>
1.47

> <s_pdb_PDB_EXPDTA>
X-RAY DIFFRACTION

> <r_pdb_PDB_EXPDTA_TEMPERATURE>
110

> <r_pdb_PDB_EXPDTA_PH>
7.5

> <s_pdb_PDB_REMARK_350_Biomolecule_1_Transform_1_Chains>
L, H, I

> <s_pdb_PDB_REMARK_350_Biomolecule_1_Transform_1_Matrix_1>
1.000000 0.000000 0.000000   0.000000;0.000000 1.000000 0.000000   0.000000;0.000000 0.000000 1.000000   0.000000

> <s_ppw_entry_id_backup>
200

> <b_ppw_prepared>
1

> <s_ppw_prepared_with_version>
2021-2

> <b_ppw_assigned_bond_orders>
1

> <b_ppw_added_hydrogens>
1

> <b_ppw_treated_metals>
1

> <b_ppw_created_disulfur>
1

> <s_ppw_het_states>
eJztVT1PwzAU/CtWVkLxe6mf43RjYkWMVYeodCJNGMKAqv53/JFwTgExMVFLkU6X5N3l7FNOBRWN2vrF1ZpKRbtdqbb+0itdqtN5AsXT2I4H9Xro2258bwKp1cu+7e6OQ7dRD7f3Q/+s9sNbP/qbG/XYqBsqwqyCMZ//Yn6F+ZWfFsZ7uAY0gAJoAWtA9wmNBiRABoSagZqBmoGagZqBmoGaQE2gJlATqAnUBGoCNYGaRLWAp3xSNISUUkBLwoIwkfCzOSdMNsPGJ2oQdSQcXolEyJOQckqVkHXKlpF4SpiReyIIkae0F4RAxSSncknAabiX9oZzQjJjyboD4S5UJDoVBhGdCpxKTD1sGi8I+JBkHd8i0akgdUnGsC9i5xkcdpdWVtfV3Cd2ZHW27Nd++Rfox35R7Jcu4rGZzk12QK69uvbq3/RKS2XnXjlvwmXru1pp+aVW8bd1/gDv7p/8

> <s_m_job_name>
align_ligands_0

> <r_phase_Shape_Sim>
0.999999999999758

> <s_m_subgroup_title>
align_ligands_0

> <s_m_subgroupid>
align_ligands_0

> <b_m_subgroup_collapsed>
0

$$$$
