32
                    3D
 Schrodinger Suite 2021-2.
 41 43  0  0  1  0            999 V2000
    3.9384  -49.6063    6.5368 O   0  0  0  0  0  0
    3.0396  -48.7416    6.5688 C   0  0  0  0  0  0
    3.2581  -47.5464    6.8620 O   0  5  0  0  0  0
    1.6622  -49.1403    6.3126 C   0  0  0  0  0  0
   -0.0838  -50.5959    6.3618 C   0  0  0  0  0  0
   -0.9641  -51.6688    6.5469 C   0  0  0  0  0  0
   -2.3398  -51.4751    6.3544 C   0  0  0  0  0  0
   -2.8105  -50.2280    5.9466 C   0  0  0  0  0  0
   -1.9138  -49.1804    5.7185 C   0  0  0  0  0  0
   -0.5405  -49.3186    5.9682 C   0  0  0  0  0  0
    0.5734  -48.4315    5.9080 C   0  0  0  0  0  0
    0.5549  -47.0259    5.4379 C   0  0  0  0  0  0
    0.0227  -46.0360    6.4691 C   0  0  0  0  0  0
   -1.5173  -45.9687    6.5098 C   0  0  0  0  0  0
   -2.0865  -46.7495    7.5193 O   0  0  0  0  0  0
   -3.3368  -46.3719    7.9294 C   0  0  0  0  0  0
   -3.8342  -47.0436    9.0327 C   0  0  0  0  0  0
   -5.0847  -46.7159    9.5557 C   0  0  0  0  0  0
   -5.7970  -45.6291    9.0549 C   0  0  0  0  0  0
   -5.3791  -45.0044    7.8855 C   0  0  0  0  0  0
   -4.1673  -45.4054    7.3069 C   0  0  0  0  0  0
   -0.5894  -52.6351    6.8447 H   0  0  0  0  0  0
   -3.0248  -52.2974    6.5008 H   0  0  0  0  0  0
   -3.8615  -50.0822    5.7691 H   0  0  0  0  0  0
   -2.3089  -48.2488    5.3645 H   0  0  0  0  0  0
   -0.0264  -46.9855    4.5141 H   0  0  0  0  0  0
    1.5561  -46.7103    5.1471 H   0  0  0  0  0  0
    0.4610  -45.0791    6.1882 H   0  0  0  0  0  0
    0.4329  -46.2070    7.4648 H   0  0  0  0  0  0
   -1.9537  -46.2017    5.5471 H   0  0  0  0  0  0
   -1.9223  -45.0051    6.7518 H   0  0  0  0  0  0
   -3.2572  -47.8329    9.4801 H   0  0  0  0  0  0
   -3.8969  -44.9005    6.3937 H   0  0  0  0  0  0
    1.2780  -50.4489    6.5000 N   0  0  0  0  0  0
    1.9539  -51.1422    6.7775 H   0  0  0  0  0  0
   -5.9670  -44.2106    7.4541 H   0  0  0  0  0  0
   -5.4800  -47.2902   10.3687 H   0  0  0  0  0  0
   -6.9901  -45.1341    9.8039 C   0  0  0  0  0  0
   -7.8617  -44.9971    9.1663 H   0  0  0  0  0  0
   -6.7153  -44.1995   10.2680 H   0  0  0  0  0  0
   -7.2001  -45.8144   10.6244 H   0  0  0  0  0  0
  1  2  2  0  0  0
  2  3  1  0  0  0
  2  4  1  0  0  0
  4 11  2  0  0  0
  4 34  1  0  0  0
  5  6  1  0  0  0
  5 10  2  0  0  0
  5 34  1  0  0  0
  6  7  2  0  0  0
  6 22  1  0  0  0
  7  8  1  0  0  0
  7 23  1  0  0  0
  8  9  2  0  0  0
  8 24  1  0  0  0
  9 10  1  0  0  0
  9 25  1  0  0  0
 10 11  1  0  0  0
 11 12  1  0  0  0
 12 26  1  0  0  0
 12 27  1  0  0  0
 12 13  1  0  0  0
 13 14  1  0  0  0
 13 28  1  0  0  0
 13 29  1  0  0  0
 14 15  1  0  0  0
 14 30  1  0  0  0
 14 31  1  0  0  0
 15 16  1  0  0  0
 16 17  1  0  0  0
 16 21  2  0  0  0
 17 18  2  0  0  0
 17 32  1  0  0  0
 18 19  1  0  0  0
 18 37  1  0  0  0
 19 20  2  0  0  0
 19 38  1  0  0  0
 20 21  1  0  0  0
 20 36  1  0  0  0
 21 33  1  0  0  0
 34 35  1  0  0  0
 38 39  1  0  0  0
 38 40  1  0  0  0
 38 41  1  0  0  0
M  CHG  1   3  -1
M  END
> <s_m_entry_id>
399

> <s_m_entry_name>
MCL1_32.1

> <r_m_Molecular_weight>
308.36021

> <s_m_Source_Path>
C:\Users\yujiethinkpad\Desktop\05A\MCL1\original

> <s_m_Source_File>
MCL1_32.sdf

> <r_user_dG.exp>
-6.58301699393044

> <s_fepmapper_entryid>
10

> <i_fepmapper_bias>
0

> <i_fepmapper_affinity>
1

> <r_fepmapper_exp_dG>
-6.58301699393

> <i_fepmapper_unit>
1

> <i_m_Source_File_Index>
1

> <s_m_job_name>
glide-dock_SP_redock_5965

> <s_i_glide_gridfile>
glide-grid_MCL1

> <i_i_glide_lignum>
16

> <i_i_glide_rotatable_bonds>
6

> <r_i_docking_score>
-7.6540424581758

> <r_i_glide_ligand_efficiency>
-0.332784454703295

> <r_i_glide_ligand_efficiency_sa>
-0.946394721149473

> <r_i_glide_ligand_efficiency_ln>
-1.85081686940677

> <r_i_glide_gscore>
-7.6540424581758

> <r_i_glide_lipo>
-4.60767252750972

> <r_i_glide_hbond>
-0.2

> <r_i_glide_metal>
0

> <r_i_glide_rewards>
-1.99726505828925

> <r_i_glide_evdw>
-29.498815536499

> <r_i_glide_ecoul>
-2.21105051040649

> <r_i_glide_erotb>
0.972874471200538

> <r_i_glide_esite>
-0.0153809901914495

> <r_i_glide_emodel>
-37.4227714880019

> <r_i_glide_energy>
-31.7098660469055

> <r_i_glide_einternal>
4.53269004821777

> <i_i_glide_confnum>
137

> <i_i_glide_posenum>
313

> <r_i_glide_eff_state_penalty>
0

> <r_glide_shape_similarity>
0.869819283485413

> <s_m_subgroup_title>
glide-dock_SP_redock_5965_lib1

> <s_m_subgroupid>
glide-dock_SP_redock_5965_lib1

> <b_m_subgroup_collapsed>
0

$$$$
