36
                    3D
 Schrodinger Suite 2021-2.
 44 46  0  0  1  0            999 V2000
    3.2601  -47.6499    6.7536 O   0  0  0  0  0  0
    2.9971  -48.8622    6.6076 C   0  0  0  0  0  0
    3.8563  -49.7617    6.7252 O   0  5  0  0  0  0
    1.6105  -49.2391    6.3333 C   0  0  0  0  0  0
   -0.1537  -50.6740    6.3728 C   0  0  0  0  0  0
   -1.0514  -51.7432    6.5484 C   0  0  0  0  0  0
   -2.4327  -51.5327    6.3499 C   0  0  0  0  0  0
   -2.9007  -50.2675    5.9417 C   0  0  0  0  0  0
   -1.9853  -49.2231    5.7160 C   0  0  0  0  0  0
   -0.5991  -49.3875    5.9520 C   0  0  0  0  0  0
    0.5411  -48.5138    5.8827 C   0  0  0  0  0  0
    0.5534  -47.0912    5.4141 C   0  0  0  0  0  0
    0.3808  -46.1102    6.5791 C   0  0  0  0  0  0
   -0.9817  -46.2036    7.2635 C   0  0  0  0  0  0
   -1.9451  -45.8060    6.3201 O   0  0  0  0  0  0
   -3.1866  -45.4590    6.7830 C   0  0  0  0  0  0
   -3.7398  -45.9422    7.9919 C   0  0  0  0  0  0
   -5.0468  -45.5679    8.3789 C   0  0  0  0  0  0
   -5.7927  -44.6945    7.5501 C   0  0  0  0  0  0
   -5.2408  -44.2058    6.3437 C   0  0  0  0  0  0
   -3.9430  -44.6060    5.9520 C   0  0  0  0  0  0
   -0.6876  -52.7090    6.8656 H   0  0  0  0  0  0
   -3.1299  -52.3435    6.5044 H   0  0  0  0  0  0
   -3.9563  -50.1066    5.7772 H   0  0  0  0  0  0
   -2.3525  -48.2621    5.3869 H   0  0  0  0  0  0
    1.4828  -46.8756    4.8864 H   0  0  0  0  0  0
   -0.2404  -46.9485    4.6848 H   0  0  0  0  0  0
    1.1650  -46.2734    7.3184 H   0  0  0  0  0  0
    0.5373  -45.0970    6.2156 H   0  0  0  0  0  0
   -1.2048  -47.2242    7.5509 H   0  0  0  0  0  0
   -1.0019  -45.5685    8.1509 H   0  0  0  0  0  0
   -3.1719  -46.6102    8.6240 H   0  0  0  0  0  0
   -3.5393  -44.2536    5.0156 H   0  0  0  0  0  0
    1.2098  -50.5525    6.5498 N   0  0  0  0  0  0
    1.8629  -51.2590    6.8688 H   0  0  0  0  0  0
   -5.8252  -43.5544    5.7083 H   0  0  0  0  0  0
   -7.4044  -44.2511    7.9510 Cl  0  0  0  0  0  0
   -5.6213  -46.0943    9.6866 C   0  0  0  0  0  0
   -5.1114  -45.5948   10.5083 H   0  0  0  0  0  0
   -6.6746  -45.8448    9.8031 H   0  0  0  0  0  0
   -5.4923  -47.6155    9.8403 C   0  0  0  0  0  0
   -6.0130  -47.9523   10.7363 H   0  0  0  0  0  0
   -5.9401  -48.1306    8.9902 H   0  0  0  0  0  0
   -4.4533  -47.9349    9.9206 H   0  0  0  0  0  0
  1  2  2  0  0  0
  2  3  1  0  0  0
  2  4  1  0  0  0
  4 11  2  0  0  0
  4 34  1  0  0  0
  5  6  1  0  0  0
  5 10  2  0  0  0
  5 34  1  0  0  0
  6  7  2  0  0  0
  6 22  1  0  0  0
  7  8  1  0  0  0
  7 23  1  0  0  0
  8  9  2  0  0  0
  8 24  1  0  0  0
  9 10  1  0  0  0
  9 25  1  0  0  0
 10 11  1  0  0  0
 11 12  1  0  0  0
 12 26  1  0  0  0
 12 27  1  0  0  0
 12 13  1  0  0  0
 13 14  1  0  0  0
 13 28  1  0  0  0
 13 29  1  0  0  0
 14 15  1  0  0  0
 14 30  1  0  0  0
 14 31  1  0  0  0
 15 16  1  0  0  0
 16 17  1  0  0  0
 16 21  2  0  0  0
 17 18  2  0  0  0
 17 32  1  0  0  0
 18 19  1  0  0  0
 18 38  1  0  0  0
 19 20  2  0  0  0
 19 37  1  0  0  0
 20 21  1  0  0  0
 20 36  1  0  0  0
 21 33  1  0  0  0
 34 35  1  0  0  0
 38 39  1  0  0  0
 38 40  1  0  0  0
 38 41  1  0  0  0
 41 42  1  0  0  0
 41 43  1  0  0  0
 41 44  1  0  0  0
M  CHG  1   3  -1
M  END
> <s_m_entry_id>
388

> <s_m_entry_name>
MCL1_36.1

> <r_m_Molecular_weight>
356.83233

> <s_m_Source_Path>
C:\Users\yujiethinkpad\Desktop\05A\MCL1\original

> <s_m_Source_File>
MCL1_36.sdf

> <r_user_dG.exp>
-8.17902305143249

> <s_fepmapper_entryid>
37

> <i_fepmapper_bias>
0

> <i_fepmapper_affinity>
1

> <r_fepmapper_exp_dG>
-8.17902305143

> <i_fepmapper_unit>
1

> <i_m_Source_File_Index>
1

> <s_m_job_name>
glide-dock_SP_redock_5965

> <s_i_glide_gridfile>
glide-grid_MCL1

> <i_i_glide_lignum>
20

> <i_i_glide_rotatable_bonds>
7

> <r_i_docking_score>
-8.22023896433389

> <r_i_glide_ligand_efficiency>
-0.328809558573356

> <r_i_glide_ligand_efficiency_sa>
-0.961444980730844

> <r_i_glide_ligand_efficiency_ln>
-1.94844297523042

> <r_i_glide_gscore>
-8.22023896433389

> <r_i_glide_lipo>
-4.95967211569602

> <r_i_glide_hbond>
-0.2

> <r_i_glide_metal>
0

> <r_i_glide_rewards>
-1.81195150297127

> <r_i_glide_evdw>
-31.0964279174805

> <r_i_glide_ecoul>
-2.91460561752319

> <r_i_glide_erotb>
0.751512930677006

> <r_i_glide_esite>
-0.00811603784109993

> <r_i_glide_emodel>
-45.2249754624313

> <r_i_glide_energy>
-34.0110335350037

> <r_i_glide_einternal>
5.46061611175537

> <i_i_glide_confnum>
117

> <i_i_glide_posenum>
341

> <r_i_glide_eff_state_penalty>
0

> <r_glide_shape_similarity>
0.903855741024017

> <s_m_subgroup_title>
glide-dock_SP_redock_5965_lib1

> <s_m_subgroupid>
glide-dock_SP_redock_5965_lib1

> <b_m_subgroup_collapsed>
0

$$$$
