38
                    3D
 Schrodinger Suite 2021-2.
 48 51  0  0  1  0            999 V2000
    4.1999  -50.4402    8.8630 O   0  0  0  0  0  0
    3.6202  -49.7645    7.9781 C   0  0  0  0  0  0
    4.0598  -48.6683    7.5529 O   0  5  0  0  0  0
    2.3178  -50.2307    7.4479 C   0  0  0  0  0  0
    0.3986  -51.4732    7.4886 C   0  0  0  0  0  0
   -0.6884  -52.3197    7.8159 C   0  0  0  0  0  0
   -1.8481  -52.3102    7.0120 C   0  0  0  0  0  0
   -1.8783  -51.5072    5.8572 C   0  0  0  0  0  0
   -0.7761  -50.6871    5.5313 C   0  0  0  0  0  0
    0.3586  -50.5850    6.3684 C   0  0  0  0  0  0
    1.5604  -49.7762    6.4024 C   0  0  0  0  0  0
    1.9727  -48.6543    5.5208 C   0  0  0  0  0  0
    1.9867  -47.2784    6.1981 C   0  0  0  0  0  0
    1.0515  -46.2521    5.5522 C   0  0  0  0  0  0
    0.1235  -45.8059    6.5317 O   0  0  0  0  0  0
   -1.0581  -46.4808    6.7097 C   0  0  0  0  0  0
   -2.0164  -45.9092    7.5838 C   0  0  0  0  0  0
   -3.2636  -46.5476    7.7664 C   0  0  0  0  0  0
   -3.5070  -47.7985    7.1599 C   0  0  0  0  0  0
   -2.5979  -48.3315    6.2377 C   0  0  0  0  0  0
   -1.3777  -47.6709    6.0083 C   0  0  0  0  0  0
   -0.6338  -52.9633    8.6824 H   0  0  0  0  0  0
   -2.6892  -52.9447    7.2567 H   0  0  0  0  0  0
   -2.7414  -51.5259    5.2130 H   0  0  0  0  0  0
   -0.8172  -50.0983    4.6340 H   0  0  0  0  0  0
    2.9308  -48.8620    5.0435 H   0  0  0  0  0  0
    1.2596  -48.6166    4.7510 H   0  0  0  0  0  0
    1.7584  -47.3685    7.2593 H   0  0  0  0  0  0
    2.9957  -46.8714    6.1645 H   0  0  0  0  0  0
    1.6542  -45.4067    5.2331 H   0  0  0  0  0  0
    0.5815  -46.5858    4.6301 H   0  0  0  0  0  0
   -1.8202  -44.9528    8.0464 H   0  0  0  0  0  0
   -0.7241  -48.0778    5.2660 H   0  0  0  0  0  0
    1.6444  -51.2777    8.0690 N   0  0  0  0  0  0
    2.0393  -51.7451    8.8781 H   0  0  0  0  0  0
   -2.8876  -49.1976    5.6703 H   0  0  0  0  0  0
   -4.4648  -48.2803    7.2850 H   0  0  0  0  0  0
   -6.9784  -44.9911    9.1357 C   0  0  0  0  0  0
   -6.4134  -44.5373    7.9303 C   0  0  0  0  0  0
   -5.1413  -44.9975    7.5506 C   0  0  0  0  0  0
   -4.4357  -45.9157    8.3510 C   0  0  0  0  0  0
   -5.0078  -46.3714    9.5549 C   0  0  0  0  0  0
   -6.2754  -45.8996    9.9526 C   0  0  0  0  0  0
   -7.9532  -44.6380    9.4330 H   0  0  0  0  0  0
   -6.9545  -43.8447    7.3016 H   0  0  0  0  0  0
   -4.7234  -44.6671    6.6102 H   0  0  0  0  0  0
   -4.4957  -47.1130   10.1511 H   0  0  0  0  0  0
   -6.7374  -46.2535   10.8615 H   0  0  0  0  0  0
  1  2  2  0  0  0
  2  3  1  0  0  0
  2  4  1  0  0  0
  4 11  2  0  0  0
  4 34  1  0  0  0
  5  6  1  0  0  0
  5 10  2  0  0  0
  5 34  1  0  0  0
  6  7  2  0  0  0
  6 22  1  0  0  0
  7  8  1  0  0  0
  7 23  1  0  0  0
  8  9  2  0  0  0
  8 24  1  0  0  0
  9 10  1  0  0  0
  9 25  1  0  0  0
 10 11  1  0  0  0
 11 12  1  0  0  0
 12 26  1  0  0  0
 12 27  1  0  0  0
 12 13  1  0  0  0
 13 14  1  0  0  0
 13 28  1  0  0  0
 13 29  1  0  0  0
 14 15  1  0  0  0
 14 30  1  0  0  0
 14 31  1  0  0  0
 15 16  1  0  0  0
 16 17  1  0  0  0
 16 21  2  0  0  0
 17 18  2  0  0  0
 17 32  1  0  0  0
 18 19  1  0  0  0
 18 41  1  0  0  0
 19 20  2  0  0  0
 19 37  1  0  0  0
 20 21  1  0  0  0
 20 36  1  0  0  0
 21 33  1  0  0  0
 34 35  1  0  0  0
 38 39  2  0  0  0
 38 43  1  0  0  0
 38 44  1  0  0  0
 39 40  1  0  0  0
 39 45  1  0  0  0
 40 41  2  0  0  0
 40 46  1  0  0  0
 41 42  1  0  0  0
 42 43  2  0  0  0
 42 47  1  0  0  0
 43 48  1  0  0  0
M  CHG  1   3  -1
M  END
> <s_m_entry_id>
373

> <s_m_entry_name>
MCL1_38.1

> <r_m_Molecular_weight>
370.4319

> <s_m_Source_Path>
C:\Users\yujiethinkpad\Desktop\05A\MCL1\original

> <s_m_Source_File>
MCL1_38.sdf

> <r_user_dG.exp>
-7.01900763427615

> <s_fepmapper_entryid>
11

> <i_fepmapper_bias>
0

> <i_fepmapper_affinity>
1

> <r_fepmapper_exp_dG>
-7.01900763428

> <i_fepmapper_unit>
1

> <i_m_Source_File_Index>
1

> <s_m_job_name>
glide-dock_SP_redock_5965

> <s_i_glide_gridfile>
glide-grid_MCL1

> <i_i_glide_lignum>
22

> <i_i_glide_rotatable_bonds>
7

> <r_i_docking_score>
-8.82164522934063

> <r_i_glide_ligand_efficiency>
-0.315058758190737

> <r_i_glide_ligand_efficiency_sa>
-0.956703949552188

> <r_i_glide_ligand_efficiency_ln>
-2.03629473369065

> <r_i_glide_gscore>
-8.82164522934063

> <r_i_glide_lipo>
-5.80959474476478

> <r_i_glide_hbond>
-0.150615853414715

> <r_i_glide_metal>
0

> <r_i_glide_rewards>
-1.78320765580419

> <r_i_glide_evdw>
-34.5911064147949

> <r_i_glide_ecoul>
-1.23047029972076

> <r_i_glide_erotb>
0.843599049903382

> <r_i_glide_esite>
-0.0077001595624726

> <r_i_glide_emodel>
-27.2525685587614

> <r_i_glide_energy>
-35.8215767145157

> <r_i_glide_einternal>
5.76058483123779

> <i_i_glide_confnum>
39

> <i_i_glide_posenum>
236

> <r_i_glide_eff_state_penalty>
0

> <r_glide_shape_similarity>
0.68102353811264

> <s_m_subgroup_title>
glide-dock_SP_redock_5965_lib1

> <s_m_subgroupid>
glide-dock_SP_redock_5965_lib1

> <b_m_subgroup_collapsed>
0

$$$$
