43
                    3D
 Schrodinger Suite 2021-2.
 44 47  0  0  1  0            999 V2000
    3.2599  -47.5972    6.8799 O   0  0  0  0  0  0
    3.0780  -48.8089    6.6143 C   0  0  0  0  0  0
    3.9979  -49.6580    6.6264 O   0  5  0  0  0  0
    1.6956  -49.2255    6.3209 C   0  0  0  0  0  0
   -0.1000  -50.6413    6.3627 C   0  0  0  0  0  0
   -1.0271  -51.6912    6.5407 C   0  0  0  0  0  0
   -2.4055  -51.4446    6.3496 C   0  0  0  0  0  0
   -2.8468  -50.1652    5.9498 C   0  0  0  0  0  0
   -1.9112  -49.1348    5.7232 C   0  0  0  0  0  0
   -0.5256  -49.3369    5.9516 C   0  0  0  0  0  0
    0.6333  -48.4919    5.8576 C   0  0  0  0  0  0
    0.6939  -47.0905    5.3432 C   0  0  0  0  0  0
    0.6158  -46.0831    6.4849 C   0  0  0  0  0  0
   -0.8159  -45.8061    6.8786 C   0  0  0  0  0  0
   -1.5402  -46.8056    7.5319 O   0  0  0  0  0  0
   -2.7946  -46.4125    7.8897 C   0  0  0  0  0  0
   -4.6035  -46.6922    9.4978 C   0  0  0  0  0  0
   -3.3305  -47.0323    9.0326 C   0  0  0  0  0  0
   -0.6873  -52.6680    6.8509 H   0  0  0  0  0  0
   -3.1230  -52.2381    6.5038 H   0  0  0  0  0  0
   -3.9001  -49.9786    5.7931 H   0  0  0  0  0  0
   -2.2590  -48.1649    5.4005 H   0  0  0  0  0  0
    1.6218  -46.9404    4.7885 H   0  0  0  0  0  0
   -0.0996  -46.9294    4.6164 H   0  0  0  0  0  0
    1.2124  -46.3597    7.3516 H   0  0  0  0  0  0
    1.0253  -45.1450    6.1179 H   0  0  0  0  0  0
   -0.8205  -44.9467    7.5511 H   0  0  0  0  0  0
   -1.3262  -45.5768    5.9510 H   0  0  0  0  0  0
   -2.7533  -47.7780    9.5501 H   0  0  0  0  0  0
   -3.5579  -45.4712    7.1510 C   0  0  0  0  0  0
   -5.0194  -47.1930   10.3510 H   0  0  0  0  0  0
   -4.8606  -45.1834    7.5669 C   0  0  0  0  0  0
   -5.3515  -45.7532    8.7783 C   0  0  0  0  0  0
   -6.6182  -45.4041    9.2469 C   0  0  0  0  0  0
   -7.4192  -44.6061    8.4224 C   0  0  0  0  0  0
   -7.0148  -44.1743    7.1449 C   0  0  0  0  0  0
   -5.6815  -44.3759    6.7509 C   0  0  0  0  0  0
   -6.9878  -45.7599   10.1982 H   0  0  0  0  0  0
   -8.3402  -44.3045    8.8273 H   0  0  0  0  0  0
   -7.6769  -43.5743    6.5377 H   0  0  0  0  0  0
   -5.3212  -43.9711    5.8156 H   0  0  0  0  0  0
   -3.2216  -45.0125    6.2356 H   0  0  0  0  0  0
    1.2785  -50.5400    6.5319 N   0  0  0  0  0  0
    1.9239  -51.2574    6.8458 H   0  0  0  0  0  0
  1  2  2  0  0  0
  2  3  1  0  0  0
  2  4  1  0  0  0
  4 11  2  0  0  0
  4 43  1  0  0  0
  5  6  1  0  0  0
  5 10  2  0  0  0
  5 43  1  0  0  0
  6  7  2  0  0  0
  6 19  1  0  0  0
  7  8  1  0  0  0
  7 20  1  0  0  0
  8  9  2  0  0  0
  8 21  1  0  0  0
  9 10  1  0  0  0
  9 22  1  0  0  0
 10 11  1  0  0  0
 11 12  1  0  0  0
 12 23  1  0  0  0
 12 24  1  0  0  0
 12 13  1  0  0  0
 13 14  1  0  0  0
 13 25  1  0  0  0
 13 26  1  0  0  0
 14 15  1  0  0  0
 14 27  1  0  0  0
 14 28  1  0  0  0
 15 16  1  0  0  0
 16 18  2  0  0  0
 16 30  1  0  0  0
 17 18  1  0  0  0
 17 31  1  0  0  0
 17 33  2  0  0  0
 18 29  1  0  0  0
 30 32  2  0  0  0
 30 42  1  0  0  0
 32 33  1  0  0  0
 32 37  1  0  0  0
 33 34  1  0  0  0
 34 35  2  0  0  0
 34 38  1  0  0  0
 35 36  1  0  0  0
 35 39  1  0  0  0
 36 37  2  0  0  0
 36 40  1  0  0  0
 37 41  1  0  0  0
 43 44  1  0  0  0
M  CHG  1   3  -1
M  END
> <s_m_entry_id>
381

> <s_m_entry_name>
MCL1_43.1

> <r_m_Molecular_weight>
344.39366

> <s_m_Source_Path>
C:\Users\yujiethinkpad\Desktop\05A\MCL1\original

> <s_m_Source_File>
MCL1_43.sdf

> <r_user_dG.exp>
-7.03469617128338

> <s_fepmapper_entryid>
43

> <i_fepmapper_bias>
0

> <i_fepmapper_affinity>
1

> <r_fepmapper_exp_dG>
-7.03469617128

> <i_fepmapper_unit>
1

> <i_m_Source_File_Index>
1

> <s_m_job_name>
glide-dock_SP_redock_5965

> <s_i_glide_gridfile>
glide-grid_MCL1

> <i_i_glide_lignum>
27

> <i_i_glide_rotatable_bonds>
6

> <r_i_docking_score>
-8.38677955084881

> <r_i_glide_ligand_efficiency>
-0.322568444263416

> <r_i_glide_ligand_efficiency_sa>
-0.955607746884831

> <r_i_glide_ligand_efficiency_ln>
-1.96960765824857

> <r_i_glide_gscore>
-8.38677955084881

> <r_i_glide_lipo>
-5.32855007791774

> <r_i_glide_hbond>
-0.2

> <r_i_glide_metal>
0

> <r_i_glide_rewards>
-1.82418971456813

> <r_i_glide_evdw>
-25.9485912322998

> <r_i_glide_ecoul>
-2.39589023590088

> <r_i_glide_erotb>
0.640363311436548

> <r_i_glide_esite>
-0.017589972799375

> <r_i_glide_emodel>
-31.6390084846375

> <r_i_glide_energy>
-28.3444814682007

> <r_i_glide_einternal>
6.36722278594971

> <i_i_glide_confnum>
41

> <i_i_glide_posenum>
125

> <r_i_glide_eff_state_penalty>
0

> <r_glide_shape_similarity>
0.878479301929474

> <s_m_subgroup_title>
glide-dock_SP_redock_5965_lib1

> <s_m_subgroupid>
glide-dock_SP_redock_5965_lib1

> <b_m_subgroup_collapsed>
0

$$$$
