56
                    3D
 Schrodinger Suite 2021-2.
 47 49  0  0  1  0            999 V2000
    3.2595  -47.4423    6.7503 O   0  0  0  0  0  0
    3.1012  -48.6593    6.4893 C   0  0  0  0  0  0
    4.0906  -49.4222    6.4039 O   0  5  0  0  0  0
    1.7106  -49.1655    6.2833 C   0  0  0  0  0  0
   -0.0831  -50.6160    6.3504 C   0  0  0  0  0  0
   -1.0164  -51.6757    6.5249 C   0  0  0  0  0  0
   -2.4004  -51.4351    6.3435 C   0  0  0  0  0  0
   -2.8508  -50.1527    5.9511 C   0  0  0  0  0  0
   -1.9189  -49.1102    5.7491 C   0  0  0  0  0  0
   -0.5281  -49.3049    5.9590 C   0  0  0  0  0  0
    0.6157  -48.4325    5.8832 C   0  0  0  0  0  0
    0.5780  -46.9879    5.4726 C   0  0  0  0  0  0
    0.3648  -46.0379    6.6728 C   0  0  0  0  0  0
   -0.9867  -46.2106    7.3704 C   0  0  0  0  0  0
   -1.9730  -45.8083    6.4506 O   0  0  0  0  0  0
   -3.2116  -45.4254    6.9138 C   0  0  0  0  0  0
   -3.7921  -45.8828    8.1325 C   0  0  0  0  0  0
   -5.1142  -45.4731    8.4755 C   0  0  0  0  0  0
   -5.7162  -45.9685    9.7939 C   0  0  0  0  0  0
   -5.8614  -44.6298    7.5931 C   0  0  0  0  0  0
   -7.5310  -44.3070    7.9508 Cl  0  0  0  0  0  0
   -5.2876  -44.2064    6.3511 C   0  0  0  0  0  0
   -6.0844  -43.4183    5.3006 C   0  0  0  0  0  0
   -3.9629  -44.6046    6.0310 C   0  0  0  0  0  0
   -0.6804  -52.6525    6.8306 H   0  0  0  0  0  0
   -3.1159  -52.2343    6.4916 H   0  0  0  0  0  0
   -3.9029  -49.9818    5.7805 H   0  0  0  0  0  0
   -2.2827  -48.1372    5.4435 H   0  0  0  0  0  0
   -0.2211  -46.8449    4.7523 H   0  0  0  0  0  0
    1.5037  -46.7270    4.9486 H   0  0  0  0  0  0
    0.4739  -45.0105    6.3456 H   0  0  0  0  0  0
    1.1614  -46.2069    7.3986 H   0  0  0  0  0  0
   -1.0139  -45.6586    8.3095 H   0  0  0  0  0  0
   -1.1578  -47.2629    7.5515 H   0  0  0  0  0  0
   -3.2406  -46.5379    8.7827 H   0  0  0  0  0  0
   -4.9865  -46.5580   10.3506 H   0  0  0  0  0  0
   -6.5972  -46.5863    9.6005 H   0  0  0  0  0  0
   -6.0080  -45.1161   10.4123 H   0  0  0  0  0  0
   -5.5703  -43.4543    4.3278 H   0  0  0  0  0  0
   -7.0674  -43.8687    5.1577 H   0  0  0  0  0  0
   -6.2166  -42.3637    5.5515 H   0  0  0  0  0  0
   -3.5408  -44.3135    5.0808 H   0  0  0  0  0  0
    2.1993  -51.6173    6.8558 C   0  0  0  0  0  0
    1.6272  -52.5357    7.0339 H   0  0  0  0  0  0
    2.8952  -51.8008    6.0375 H   0  0  0  0  0  0
    2.7621  -51.3632    7.7524 H   0  0  0  0  0  0
    1.3123  -50.5139    6.4952 N   0  0  0  0  0  0
  1  2  2  0  0  0
  2  3  1  0  0  0
  2  4  1  0  0  0
  4 11  2  0  0  0
  4 47  1  0  0  0
  5  6  1  0  0  0
  5 10  2  0  0  0
  5 47  1  0  0  0
  6  7  2  0  0  0
  6 25  1  0  0  0
  7  8  1  0  0  0
  7 26  1  0  0  0
  8  9  2  0  0  0
  8 27  1  0  0  0
  9 10  1  0  0  0
  9 28  1  0  0  0
 10 11  1  0  0  0
 11 12  1  0  0  0
 12 29  1  0  0  0
 12 30  1  0  0  0
 12 13  1  0  0  0
 13 14  1  0  0  0
 13 31  1  0  0  0
 13 32  1  0  0  0
 14 15  1  0  0  0
 14 33  1  0  0  0
 14 34  1  0  0  0
 15 16  1  0  0  0
 16 17  1  0  0  0
 16 24  2  0  0  0
 17 18  2  0  0  0
 17 35  1  0  0  0
 18 19  1  0  0  0
 18 20  1  0  0  0
 19 36  1  0  0  0
 19 37  1  0  0  0
 19 38  1  0  0  0
 20 21  1  0  0  0
 20 22  2  0  0  0
 22 23  1  0  0  0
 22 24  1  0  0  0
 23 39  1  0  0  0
 23 40  1  0  0  0
 23 41  1  0  0  0
 24 42  1  0  0  0
 43 44  1  0  0  0
 43 45  1  0  0  0
 43 46  1  0  0  0
 43 47  1  0  0  0
M  CHG  1   3  -1
M  END
> <s_m_entry_id>
379

> <s_m_entry_name>
MCL1_56.1

> <r_m_Molecular_weight>
370.85942

> <s_m_Source_Path>
C:\Users\yujiethinkpad\Desktop\05A\MCL1\original

> <s_m_Source_File>
MCL1_56.sdf

> <r_user_dG.exp>
-9.25808309585768

> <s_fepmapper_entryid>
35

> <i_fepmapper_bias>
0

> <i_fepmapper_affinity>
1

> <r_fepmapper_exp_dG>
-9.25808309586

> <i_fepmapper_unit>
1

> <i_m_Source_File_Index>
1

> <s_m_job_name>
glide-dock_SP_redock_5965

> <s_i_glide_gridfile>
glide-grid_MCL1

> <i_i_glide_lignum>
39

> <i_i_glide_rotatable_bonds>
6

> <r_i_docking_score>
-8.47273695095724

> <r_i_glide_ligand_efficiency>
-0.32587449811374

> <r_i_glide_ligand_efficiency_sa>
-0.965401918407722

> <r_i_glide_ligand_efficiency_ln>
-1.98979447161479

> <r_i_glide_gscore>
-8.47273695095724

> <r_i_glide_lipo>
-5.09107024628945

> <r_i_glide_hbond>
-0.2

> <r_i_glide_metal>
0

> <r_i_glide_rewards>
-1.87263382069392

> <r_i_glide_evdw>
-30.5264835357666

> <r_i_glide_ecoul>
-3.08428478240967

> <r_i_glide_erotb>
0.70154775679004

> <r_i_glide_esite>
-0.021613746614129

> <r_i_glide_emodel>
-47.1985807269381

> <r_i_glide_energy>
-33.6107683181763

> <r_i_glide_einternal>
3.36971974372864

> <i_i_glide_confnum>
275

> <i_i_glide_posenum>
281

> <r_i_glide_eff_state_penalty>
0

> <r_glide_shape_similarity>
0.905124008655548

> <s_m_subgroup_title>
glide-dock_SP_redock_5965_lib1

> <s_m_subgroupid>
glide-dock_SP_redock_5965_lib1

> <b_m_subgroup_collapsed>
0

$$$$
