65
                    3D
 Schrodinger Suite 2021-2.
 43 45  0  0  1  0            999 V2000
    4.1491  -49.3595    6.3571 O   0  0  0  0  0  0
    3.1596  -48.6017    6.5106 C   0  0  0  0  0  0
    3.2591  -47.4169    6.9088 O   0  5  0  0  0  0
    1.8030  -49.0975    6.2506 C   0  0  0  0  0  0
    1.6095  -50.8064    6.5361 S   0  0  0  0  0  0
   -0.1297  -50.6660    6.3529 C   0  0  0  0  0  0
   -1.0918  -51.6878    6.5256 C   0  0  0  0  0  0
   -2.4597  -51.4044    6.3297 C   0  0  0  0  0  0
   -2.8523  -50.1064    5.9469 C   0  0  0  0  0  0
   -1.8838  -49.0954    5.7679 C   0  0  0  0  0  0
   -0.4995  -49.3285    5.9825 C   0  0  0  0  0  0
    0.6406  -48.4331    5.8975 C   0  0  0  0  0  0
    0.5492  -46.9786    5.5062 C   0  0  0  0  0  0
    0.3857  -46.0180    6.7117 C   0  0  0  0  0  0
   -0.9822  -46.0526    7.4239 C   0  0  0  0  0  0
   -1.9835  -45.8062    6.4574 O   0  0  0  0  0  0
   -3.2323  -45.4333    6.9080 C   0  0  0  0  0  0
   -3.9723  -44.6039    6.0362 C   0  0  0  0  0  0
   -5.2984  -44.2057    6.3544 C   0  0  0  0  0  0
   -6.1183  -43.4490    5.3002 C   0  0  0  0  0  0
   -5.8782  -44.6540    7.5864 C   0  0  0  0  0  0
   -7.5397  -44.3147    7.9471 Cl  0  0  0  0  0  0
   -5.1178  -45.4800    8.4795 C   0  0  0  0  0  0
   -5.7183  -46.0078    9.7821 C   0  0  0  0  0  0
   -3.7995  -45.8683    8.1369 C   0  0  0  0  0  0
   -0.6208  -53.2938    6.9939 Cl  0  0  0  0  0  0
   -3.2031  -52.1803    6.4547 H   0  0  0  0  0  0
   -3.8973  -49.8891    5.7648 H   0  0  0  0  0  0
   -2.2128  -48.1180    5.4540 H   0  0  0  0  0  0
   -0.2770  -46.8415    4.8079 H   0  0  0  0  0  0
    1.4468  -46.7022    4.9536 H   0  0  0  0  0  0
    0.5537  -45.0062    6.3502 H   0  0  0  0  0  0
    1.1719  -46.2053    7.4420 H   0  0  0  0  0  0
   -1.0081  -45.3100    8.2185 H   0  0  0  0  0  0
   -1.1916  -47.0087    7.8747 H   0  0  0  0  0  0
   -3.5427  -44.3197    5.0893 H   0  0  0  0  0  0
   -5.6067  -43.4674    4.3328 H   0  0  0  0  0  0
   -6.2926  -42.4056    5.5498 H   0  0  0  0  0  0
   -7.0893  -43.9159    5.1475 H   0  0  0  0  0  0
   -5.0046  -46.6191   10.3458 H   0  0  0  0  0  0
   -6.0165  -45.1825   10.4271 H   0  0  0  0  0  0
   -6.6021  -46.6164    9.5827 H   0  0  0  0  0  0
   -3.2405  -46.5221    8.7887 H   0  0  0  0  0  0
  1  2  2  0  0  0
  2  3  1  0  0  0
  2  4  1  0  0  0
  4  5  1  0  0  0
  4 12  2  0  0  0
  5  6  1  0  0  0
  6  7  1  0  0  0
  6 11  2  0  0  0
  7  8  2  0  0  0
  7 26  1  0  0  0
  8  9  1  0  0  0
  8 27  1  0  0  0
  9 10  2  0  0  0
  9 28  1  0  0  0
 10 11  1  0  0  0
 10 29  1  0  0  0
 11 12  1  0  0  0
 12 13  1  0  0  0
 13 30  1  0  0  0
 13 31  1  0  0  0
 13 14  1  0  0  0
 14 15  1  0  0  0
 14 32  1  0  0  0
 14 33  1  0  0  0
 15 16  1  0  0  0
 15 34  1  0  0  0
 15 35  1  0  0  0
 16 17  1  0  0  0
 17 18  1  0  0  0
 17 25  2  0  0  0
 18 19  2  0  0  0
 18 36  1  0  0  0
 19 20  1  0  0  0
 19 21  1  0  0  0
 20 37  1  0  0  0
 20 38  1  0  0  0
 20 39  1  0  0  0
 21 22  1  0  0  0
 21 23  2  0  0  0
 23 24  1  0  0  0
 23 25  1  0  0  0
 24 40  1  0  0  0
 24 41  1  0  0  0
 24 42  1  0  0  0
 25 43  1  0  0  0
M  CHG  1   3  -1
M  END
> <s_m_entry_id>
386

> <s_m_entry_name>
MCL1_65.1

> <r_m_Molecular_weight>
408.32669

> <s_m_Source_Path>
C:\Users\yujiethinkpad\Desktop\05A\MCL1\original

> <s_m_Source_File>
MCL1_65.sdf

> <r_user_dG.exp>
-8.40733622276992

> <s_fepmapper_entryid>
29

> <i_fepmapper_bias>
0

> <i_fepmapper_affinity>
1

> <r_fepmapper_exp_dG>
-8.40733622277

> <i_fepmapper_unit>
1

> <i_m_Source_File_Index>
1

> <s_m_job_name>
glide-dock_SP_redock_5965

> <s_i_glide_gridfile>
glide-grid_MCL1

> <i_i_glide_lignum>
5

> <i_i_glide_rotatable_bonds>
6

> <r_i_docking_score>
-8.26223383720147

> <r_i_glide_ligand_efficiency>
-0.317778224507749

> <r_i_glide_ligand_efficiency_sa>
-0.941416739707272

> <r_i_glide_ligand_efficiency_ln>
-1.9403585060663

> <r_i_glide_gscore>
-8.26223383720147

> <r_i_glide_lipo>
-5.25518601494659

> <r_i_glide_hbond>
-0.2

> <r_i_glide_metal>
0

> <r_i_glide_rewards>
-1.3823588130845

> <r_i_glide_evdw>
-30.8547191619873

> <r_i_glide_ecoul>
-2.94967007637024

> <r_i_glide_erotb>
0.590202387595814

> <r_i_glide_esite>
-0.0297049272112941

> <r_i_glide_emodel>
-46.714284764431

> <r_i_glide_energy>
-33.8043892383575

> <r_i_glide_einternal>
4.89407968521118

> <i_i_glide_confnum>
247

> <i_i_glide_posenum>
8

> <r_i_glide_eff_state_penalty>
0

> <r_glide_shape_similarity>
0.902790069580078

> <s_m_subgroup_title>
glide-dock_SP_redock_5965_lib1

> <s_m_subgroupid>
glide-dock_SP_redock_5965_lib1

> <b_m_subgroup_collapsed>
0

$$$$
