22
                    3D
 Schrodinger Suite 2021-2.
 49 52  0  0  1  0            999 V2000
    1.2306   29.0131    6.7975 C   0  0  0  0  0  0
   -1.7810   31.7872    8.0102 C   0  0  0  0  0  0
   -0.6540   27.3429   10.0671 C   0  0  0  0  0  0
   -0.5471   25.8448   10.4062 C   0  0  0  0  0  0
   -0.7774   25.6526   11.9123 C   0  0  0  0  0  0
   -0.6298   24.1985   12.3357 C   0  0  0  0  0  0
   -1.5736   23.3020   11.5330 C   0  0  0  0  0  0
   -1.3387   23.4791   10.0356 C   0  0  0  0  0  0
   -1.4976   24.9420    9.6120 C   0  0  0  0  0  0
    3.9684   25.6857    8.0442 C   0  0  0  0  0  0
    4.7692   25.1582    7.0314 C   0  0  0  0  0  0
    4.7467   25.7520    5.7659 C   0  0  0  0  0  0
    3.9456   26.8762    5.5325 C   0  0  0  0  0  0
    0.5040   28.1370    7.4764 N   0  0  0  0  0  0
   -0.6028   28.5409    8.0931 C   0  0  0  0  0  0
   -1.2712   27.6025    8.8160 O   0  0  0  0  0  0
   -0.9717   29.8871    7.9871 C   0  0  0  0  0  0
   -2.0541   30.5815    8.4653 N   0  0  0  0  0  0
   -0.6105   31.9673    7.3893 N   0  0  0  0  0  0
   -0.0723   30.7154    7.2672 C   0  0  0  0  0  0
    1.0470   30.3167    6.6131 N   0  0  0  0  0  0
    2.3632   28.5259    6.2720 N   0  0  0  0  0  0
    3.1440   27.4035    6.5506 C   0  0  0  0  0  0
    3.1571   26.7942    7.8123 C   0  0  0  0  0  0
   -2.4699   32.6054    8.1206 H   0  0  0  0  0  0
   -1.2014   27.8103   10.8874 H   0  0  0  0  0  0
    0.3349   27.8035   10.0365 H   0  0  0  0  0  0
    0.4612   25.5004   10.1712 H   0  0  0  0  0  0
   -0.0727   26.2645   12.4761 H   0  0  0  0  0  0
   -1.7742   26.0014   12.1852 H   0  0  0  0  0  0
    0.3948   23.8874   12.1507 H   0  0  0  0  0  0
   -0.8114   24.0920   13.4061 H   0  0  0  0  0  0
   -1.4189   22.2579   11.8065 H   0  0  0  0  0  0
   -2.6110   23.5392   11.7742 H   0  0  0  0  0  0
   -0.3365   23.1336    9.7759 H   0  0  0  0  0  0
   -2.0317   22.8549    9.4728 H   0  0  0  0  0  0
   -2.5295   25.2586    9.7733 H   0  0  0  0  0  0
   -1.3092   25.0518    8.5427 H   0  0  0  0  0  0
    3.9647   25.2291    9.0223 H   0  0  0  0  0  0
    5.3790   24.2885    7.2202 H   0  0  0  0  0  0
    3.9640   27.3287    4.5536 H   0  0  0  0  0  0
   -0.1985   32.8277    7.0426 H   0  0  0  0  0  0
    2.7095   29.0099    5.4535 H   0  0  0  0  0  0
    2.5477   27.1794    8.6158 H   0  0  0  0  0  0
    5.6957   25.1043    4.4860 S   0  0  0  0  0  0
    5.4568   26.0826    2.9819 C   0  0  0  0  0  0
    6.0776   25.6538    2.1556 H   0  0  0  0  0  0
    4.3774   26.0580    2.6886 H   0  0  0  0  0  0
    5.7679   27.1404    3.1718 H   0  0  0  0  0  0
  1 14  1  0  0  0
  1 21  2  0  0  0
  1 22  1  0  0  0
  2 18  2  0  0  0
  2 19  1  0  0  0
  2 25  1  0  0  0
  3  4  1  0  0  0
  3 16  1  0  0  0
  3 26  1  0  0  0
  3 27  1  0  0  0
  4  5  1  0  0  0
  4  9  1  0  0  0
  4 28  1  0  0  0
  5  6  1  0  0  0
  5 29  1  0  0  0
  5 30  1  0  0  0
  6  7  1  0  0  0
  6 31  1  0  0  0
  6 32  1  0  0  0
  7  8  1  0  0  0
  7 33  1  0  0  0
  7 34  1  0  0  0
  8  9  1  0  0  0
  8 35  1  0  0  0
  8 36  1  0  0  0
  9 37  1  0  0  0
  9 38  1  0  0  0
 10 11  1  0  0  0
 10 24  2  0  0  0
 10 39  1  0  0  0
 11 12  2  0  0  0
 11 40  1  0  0  0
 12 13  1  0  0  0
 12 45  1  0  0  0
 13 23  2  0  0  0
 13 41  1  0  0  0
 14 15  2  0  0  0
 15 16  1  0  0  0
 15 17  1  0  0  0
 17 18  1  0  0  0
 17 20  2  0  0  0
 19 20  1  0  0  0
 19 42  1  0  0  0
 20 21  1  0  0  0
 22 23  1  0  0  0
 22 43  1  0  0  0
 23 24  1  0  0  0
 24 44  1  0  0  0
 45 46  1  0  0  0
 46 47  1  0  0  0
 46 48  1  0  0  0
 46 49  1  0  0  0
M  END
> <s_m_entry_id>
1769

> <s_m_entry_name>
CDK2_22.1

> <s_m_Source_Path>
C:\Users\yujiethinkpad\Desktop\05A\CDK2

> <s_m_Source_File>
CDK2_22.sdf

> <i_m_Source_File_Index>
1

> <s_m_job_name>
align_ligands_2

> <r_user_dG.exp>
-7.862

> <r_m_Molecular_weight>
369.49206

> <i_phase_Input_Structure_Number>
2

> <i_phase_Structure_Number>
2

> <i_phase_Reference_Structure>
16

> <s_phase_Core_SMARTS>
A1AAAAA1AAa(a(a23)aa[a]3)aa(a2)Aa4aaaaa4

> <s_f3d_frozen_atoms>
5 6 7 8 9 4 3 16 15 17 20 18 2 19 14 1 21 22 23 24 10 11 12 13 29 30 31 32 33 34 35 36 37 38 28 26 27 25 42 43 44 39 40 41

> <r_phase_Similarity_to_Reference>
0.930345408910039

> <s_phase_Alignment_Method>
snapped core

> <s_phase_Alignment_Reason>


> <s_m_subgroup_title>
align_ligands_2

> <s_m_subgroupid>
align_ligands_2

> <b_m_subgroup_collapsed>
0

$$$$
