20669(2qbr)
                    3D
 Schrodinger Suite 2021-2.
 42 44  0  0  1  0            999 V2000
   40.4219   18.2217   12.5167 O   0  0  0  0  0  0
   40.2175   17.1283   13.0754 C   0  0  0  0  0  0
   39.2997   16.3357   12.7948 O   0  5  0  0  0  0
   41.1219   16.7689   14.2325 C   0  0  0  0  0  0
   42.0266   15.7678   13.7930 O   0  0  0  0  0  0
   42.3216   14.8394   14.7277 C   0  0  0  0  0  0
   41.8522   13.4993   14.6966 C   0  0  0  0  0  0
   40.7903   12.8958   13.2536 Br  0  0  0  0  0  0
   42.2747   12.7058   15.7360 C   0  0  0  0  0  0
   42.0677   11.2987   16.0797 C   0  0  0  0  0  0
   43.1249   10.5911   16.7057 C   0  0  0  0  0  0
   42.9467    9.2847   17.1885 C   0  0  0  0  0  0
   41.7076    8.6576   17.0033 C   0  0  0  0  0  0
   40.6593    9.3104   16.3247 C   0  0  0  0  0  0
   39.3837    8.6303   16.1201 N   0  0  0  0  0  0
   38.2992    9.3088   15.4167 C   0  0  0  0  0  0
   37.4539    8.2950   14.7042 C   0  0  0  0  0  0
   38.0247    7.1143   14.2441 C   0  0  0  0  0  0
   37.2414    6.1750   13.5839 C   0  0  0  0  0  0
   35.8874    6.4163   13.3839 C   0  0  0  0  0  0
   35.3166    7.5970   13.8440 C   0  0  0  0  0  0
   36.0999    8.5364   14.5042 C   0  0  0  0  0  0
   40.8363   10.6393   15.8567 C   0  0  0  0  0  0
   43.2945   13.6390   16.8022 S   0  0  0  0  0  0
   43.1230   15.0665   15.8203 C   0  0  0  0  0  0
   43.8438   16.2670   16.2757 C   0  0  0  0  0  0
   43.9175   17.2745   15.5228 O   0  0  0  0  0  0
   44.3785   16.2686   17.4099 O   0  5  0  0  0  0
   41.6701   17.6545   14.5539 H   0  0  0  0  0  0
   40.5207   16.3934   15.0606 H   0  0  0  0  0  0
   44.0961   11.0512   16.8159 H   0  0  0  0  0  0
   43.7591    8.7810   17.6914 H   0  0  0  0  0  0
   41.5711    7.6601   17.3929 H   0  0  0  0  0  0
   39.2483    7.6671   16.4737 H   0  0  0  0  0  0
   37.6856    9.8537   16.1342 H   0  0  0  0  0  0
   38.7172   10.0073   14.6918 H   0  0  0  0  0  0
   39.0788    6.9264   14.3998 H   0  0  0  0  0  0
   37.6858    5.2557   13.2257 H   0  0  0  0  0  0
   35.2777    5.6850   12.8699 H   0  0  0  0  0  0
   34.2625    7.7850   13.6883 H   0  0  0  0  0  0
   35.6555    9.4557   14.8624 H   0  0  0  0  0  0
   40.0435   11.1585   15.3378 H   0  0  0  0  0  0
  1  2  2  0  0  0
  2  3  1  0  0  0
  2  4  1  0  0  0
  4  5  1  0  0  0
  4 29  1  0  0  0
  4 30  1  0  0  0
  5  6  1  0  0  0
  6 25  2  0  0  0
  6  7  1  0  0  0
  7  8  1  0  0  0
  7  9  2  0  0  0
  9 10  1  0  0  0
  9 24  1  0  0  0
 10 23  1  0  0  0
 10 11  2  0  0  0
 11 12  1  0  0  0
 11 31  1  0  0  0
 12 13  2  0  0  0
 12 32  1  0  0  0
 13 14  1  0  0  0
 13 33  1  0  0  0
 14 15  1  0  0  0
 14 23  2  0  0  0
 15 16  1  0  0  0
 15 34  1  0  0  0
 16 17  1  0  0  0
 16 35  1  0  0  0
 16 36  1  0  0  0
 17 22  1  0  0  0
 17 18  2  0  0  0
 18 19  1  0  0  0
 18 37  1  0  0  0
 19 20  2  0  0  0
 19 38  1  0  0  0
 20 21  1  0  0  0
 20 39  1  0  0  0
 21 22  2  0  0  0
 21 40  1  0  0  0
 22 41  1  0  0  0
 23 42  1  0  0  0
 24 25  1  0  0  0
 25 26  1  0  0  0
 26 27  2  0  0  0
 26 28  1  0  0  0
M  CHG  2   3  -1  28  -1
M  END
> <i_m_stars>
3

> <s_m_entry_id>
537

> <s_m_entry_name>
PTP1B_206692qbr.1

> <r_user_dG.exp>
-8.60732535283582

> <r_m_Molecular_weight>
460.31128

> <s_m_Source_Path>
C:\Users\yujiethinkpad\Desktop\05A\PTP1B

> <s_m_Source_File>
PTP1B_206692qbr.sdf

> <i_m_Source_File_Index>
1

> <s_m_job_name>
align_ligands_8606

> <i_phase_Input_Structure_Number>
15

> <i_phase_Structure_Number>
15

> <r_phase_Similarity_to_Reference>
0.844253529282743

> <i_phase_Reference_Structure>
1

> <s_phase_Alignment_Method>
snapped core

> <s_phase_Alignment_Reason>


> <s_phase_Core_SMARTS>
a1aaaa1-a2aaaaa2

> <s_f3d_frozen_atoms>
24 25 6 7 9 10 23 14 13 12 11 8 42 33 32 31

> <s_m_subgroup_title>
align_ligands_8606

> <s_m_subgroupid>
align_ligands_8606

> <b_m_subgroup_collapsed>
0

$$$$
