23472
                    3D
 Schrodinger Suite 2021-2.
 42 44  0  0  1  0            999 V2000
   40.4219   18.2217   12.5167 O   0  0  0  0  0  0
   40.2175   17.1283   13.0754 C   0  0  0  0  0  0
   39.2997   16.3357   12.7948 O   0  5  0  0  0  0
   41.1219   16.7689   14.2325 C   0  0  0  0  0  0
   42.0266   15.7678   13.7930 O   0  0  0  0  0  0
   42.3216   14.8394   14.7277 C   0  0  0  0  0  0
   41.8522   13.4993   14.6966 C   0  0  0  0  0  0
   40.7903   12.8958   13.2536 Br  0  0  0  0  0  0
   42.2747   12.7058   15.7360 C   0  0  0  0  0  0
   42.0677   11.2987   16.0797 C   0  0  0  0  0  0
   43.1249   10.5911   16.7057 C   0  0  0  0  0  0
   42.9467    9.2847   17.1885 C   0  0  0  0  0  0
   41.7076    8.6576   17.0033 C   0  0  0  0  0  0
   40.6593    9.3104   16.3247 C   0  0  0  0  0  0
   39.3847    8.6293   16.1175 N   0  0  0  0  0  0
   38.0922    9.4381   15.2792 S   0  0  0  0  0  0
   37.2059   10.0251   16.2901 O   0  0  0  0  0  0
   38.6928   10.2513   14.2161 O   0  0  0  0  0  0
   37.2119    8.1004   14.5021 C   0  0  0  0  0  0
   37.5705    7.6862   13.2211 C   0  0  0  0  0  0
   36.8883    6.6410   12.6047 C   0  0  0  0  0  0
   35.8466    6.0144   13.2782 C   0  0  0  0  0  0
   35.1781    4.9986   12.6881 F   0  0  0  0  0  0
   35.4893    6.4287   14.5572 C   0  0  0  0  0  0
   36.1687    7.4735   15.1774 C   0  0  0  0  0  0
   40.8363   10.6393   15.8567 C   0  0  0  0  0  0
   43.2945   13.6390   16.8022 S   0  0  0  0  0  0
   43.1230   15.0665   15.8203 C   0  0  0  0  0  0
   43.8438   16.2670   16.2757 C   0  0  0  0  0  0
   43.9175   17.2745   15.5228 O   0  0  0  0  0  0
   44.3785   16.2686   17.4099 O   0  5  0  0  0  0
   41.6701   17.6545   14.5539 H   0  0  0  0  0  0
   40.5207   16.3934   15.0606 H   0  0  0  0  0  0
   44.0914   11.0574   16.8283 H   0  0  0  0  0  0
   43.7570    8.7824   17.6960 H   0  0  0  0  0  0
   41.5633    7.6631   17.3956 H   0  0  0  0  0  0
   39.2499    7.6653   16.4692 H   0  0  0  0  0  0
   38.3824    8.1784   12.7027 H   0  0  0  0  0  0
   37.1617    6.3152   11.6115 H   0  0  0  0  0  0
   34.6772    5.9318   15.0681 H   0  0  0  0  0  0
   35.8888    7.7936   16.1720 H   0  0  0  0  0  0
   40.0474   11.1508   15.3242 H   0  0  0  0  0  0
  1  2  2  0  0  0
  2  3  1  0  0  0
  2  4  1  0  0  0
  4  5  1  0  0  0
  4 32  1  0  0  0
  4 33  1  0  0  0
  5  6  1  0  0  0
  6 28  2  0  0  0
  6  7  1  0  0  0
  7  8  1  0  0  0
  7  9  2  0  0  0
  9 10  1  0  0  0
  9 27  1  0  0  0
 10 26  1  0  0  0
 10 11  2  0  0  0
 11 12  1  0  0  0
 11 34  1  0  0  0
 12 13  2  0  0  0
 12 35  1  0  0  0
 13 14  1  0  0  0
 13 36  1  0  0  0
 14 15  1  0  0  0
 14 26  2  0  0  0
 15 16  1  0  0  0
 15 37  1  0  0  0
 16 17  2  0  0  0
 16 18  2  0  0  0
 16 19  1  0  0  0
 19 25  1  0  0  0
 19 20  2  0  0  0
 20 21  1  0  0  0
 20 38  1  0  0  0
 21 22  2  0  0  0
 21 39  1  0  0  0
 22 23  1  0  0  0
 22 24  1  0  0  0
 24 25  2  0  0  0
 24 40  1  0  0  0
 25 41  1  0  0  0
 26 42  1  0  0  0
 27 28  1  0  0  0
 28 29  1  0  0  0
 29 30  2  0  0  0
 29 31  1  0  0  0
M  CHG  2   3  -1  31  -1
M  END
> <i_m_stars>
2

> <s_m_entry_id>
545

> <s_m_entry_name>
PTP1B_23472.1

> <r_user_dG.exp>
-8.64628903953511

> <r_m_Molecular_weight>
528.33742

> <s_m_Source_Path>
C:\Users\yujiethinkpad\Desktop\05A\PTP1B

> <s_m_Source_File>
PTP1B_23472.sdf

> <i_m_Source_File_Index>
1

> <s_m_job_name>
align_ligands_8606

> <i_phase_Input_Structure_Number>
23

> <i_phase_Structure_Number>
23

> <r_phase_Similarity_to_Reference>
0.786421841365679

> <i_phase_Reference_Structure>
1

> <s_phase_Alignment_Method>
snapped core

> <s_phase_Alignment_Reason>


> <s_phase_Core_SMARTS>
a1aaaa1-a2aaaaa2

> <s_f3d_frozen_atoms>
27 28 6 7 9 10 26 14 13 12 11 8 42 36 35 34

> <s_m_subgroup_title>
align_ligands_8606

> <s_m_subgroupid>
align_ligands_8606

> <b_m_subgroup_collapsed>
0

$$$$
