23470
                    3D
 Schrodinger Suite 2021-2.
 42 43  0  0  1  0            999 V2000
   36.5357    7.6803   13.0446 C   0  0  0  0  0  0
   36.2315    8.2931   14.3794 C   0  0  0  0  0  0
   35.0692    7.5796   15.0040 C   0  0  0  0  0  0
   37.3994    8.1735   15.2473 N   0  0  0  0  0  0
   38.4672    8.9642   15.2176 C   0  0  0  0  0  0
   38.5929    9.9034   14.4403 O   0  0  0  0  0  0
   39.3842    8.6295   16.1193 N   0  0  0  0  0  0
   40.6593    9.3104   16.3247 C   0  0  0  0  0  0
   41.7076    8.6576   17.0033 C   0  0  0  0  0  0
   42.9467    9.2847   17.1885 C   0  0  0  0  0  0
   43.1249   10.5911   16.7057 C   0  0  0  0  0  0
   42.0677   11.2987   16.0797 C   0  0  0  0  0  0
   42.2747   12.7058   15.7360 C   0  0  0  0  0  0
   43.2945   13.6390   16.8022 S   0  0  0  0  0  0
   43.1230   15.0665   15.8203 C   0  0  0  0  0  0
   43.8438   16.2670   16.2757 C   0  0  0  0  0  0
   43.9175   17.2745   15.5228 O   0  0  0  0  0  0
   44.3785   16.2686   17.4099 O   0  5  0  0  0  0
   42.3216   14.8394   14.7277 C   0  0  0  0  0  0
   42.0266   15.7678   13.7930 O   0  0  0  0  0  0
   41.1219   16.7689   14.2325 C   0  0  0  0  0  0
   40.2175   17.1283   13.0754 C   0  0  0  0  0  0
   40.4219   18.2217   12.5167 O   0  0  0  0  0  0
   39.2997   16.3357   12.7948 O   0  5  0  0  0  0
   41.8522   13.4993   14.6966 C   0  0  0  0  0  0
   40.7903   12.8958   13.2536 Br  0  0  0  0  0  0
   40.8363   10.6393   15.8567 C   0  0  0  0  0  0
   35.6637    7.7695   12.3966 H   0  0  0  0  0  0
   37.3802    8.1987   12.5907 H   0  0  0  0  0  0
   36.7841    6.6272   13.1764 H   0  0  0  0  0  0
   35.9831    9.3462   14.2476 H   0  0  0  0  0  0
   34.1973    7.6689   14.3561 H   0  0  0  0  0  0
   35.3177    6.5266   15.1359 H   0  0  0  0  0  0
   34.8482    8.0250   15.9740 H   0  0  0  0  0  0
   37.2652    7.3945   15.8727 H   0  0  0  0  0  0
   39.3118    7.8647   16.7718 H   0  0  0  0  0  0
   41.5879    7.6658   17.4107 H   0  0  0  0  0  0
   43.7420    8.7642   17.7016 H   0  0  0  0  0  0
   44.0850   11.0719   16.8239 H   0  0  0  0  0  0
   40.5315   16.3851   15.0646 H   0  0  0  0  0  0
   41.6809   17.6463   14.5579 H   0  0  0  0  0  0
   40.0307   11.1266   15.3264 H   0  0  0  0  0  0
  1  2  1  0  0  0
  1 28  1  0  0  0
  1 29  1  0  0  0
  1 30  1  0  0  0
  2  3  1  0  0  0
  2  4  1  0  0  0
  2 31  1  0  0  0
  3 32  1  0  0  0
  3 33  1  0  0  0
  3 34  1  0  0  0
  4  5  1  0  0  0
  4 35  1  0  0  0
  5  6  2  0  0  0
  5  7  1  0  0  0
  7  8  1  0  0  0
  7 36  1  0  0  0
  8 27  1  0  0  0
  8  9  2  0  0  0
  9 10  1  0  0  0
  9 37  1  0  0  0
 10 11  2  0  0  0
 10 38  1  0  0  0
 11 12  1  0  0  0
 11 39  1  0  0  0
 12 13  1  0  0  0
 12 27  2  0  0  0
 13 25  2  0  0  0
 13 14  1  0  0  0
 14 15  1  0  0  0
 15 16  1  0  0  0
 15 19  2  0  0  0
 16 17  2  0  0  0
 16 18  1  0  0  0
 19 20  1  0  0  0
 19 25  1  0  0  0
 20 21  1  0  0  0
 21 22  1  0  0  0
 21 40  1  0  0  0
 21 41  1  0  0  0
 22 23  2  0  0  0
 22 24  1  0  0  0
 25 26  1  0  0  0
 27 42  1  0  0  0
M  CHG  2  18  -1  24  -1
M  END
> <i_m_stars>
2

> <s_m_entry_id>
543

> <s_m_entry_name>
PTP1B_23470.1

> <r_user_dG.exp>
-7.72301857947764

> <r_m_Molecular_weight>
455.2919

> <s_m_Source_Path>
C:\Users\yujiethinkpad\Desktop\05A\PTP1B

> <s_m_Source_File>
PTP1B_23470.sdf

> <i_m_Source_File_Index>
1

> <s_m_job_name>
align_ligands_8606

> <i_phase_Input_Structure_Number>
21

> <i_phase_Structure_Number>
21

> <r_phase_Similarity_to_Reference>
0.782577054614756

> <i_phase_Reference_Structure>
1

> <s_phase_Alignment_Method>
snapped core

> <s_phase_Alignment_Reason>


> <s_phase_Core_SMARTS>
a1aaaa1-a2aaaaa2

> <s_f3d_frozen_atoms>
14 15 19 25 13 12 27 8 9 10 11 26 42 37 38 39

> <s_m_subgroup_title>
align_ligands_8606

> <s_m_subgroupid>
align_ligands_8606

> <b_m_subgroup_collapsed>
0

$$$$
