23471
                    3D
 Schrodinger Suite 2021-2.
 35 36  0  0  1  0            999 V2000
   36.3902    8.3900   14.3863 C   0  0  0  0  0  0
   37.4014    8.1253   15.2872 O   0  0  0  0  0  0
   38.4683    8.9631   15.2154 C   0  0  0  0  0  0
   38.5705    9.8968   14.4274 O   0  0  0  0  0  0
   39.3847    8.6289   16.1182 N   0  0  0  0  0  0
   40.6593    9.3104   16.3247 C   0  0  0  0  0  0
   41.7076    8.6576   17.0033 C   0  0  0  0  0  0
   42.9467    9.2847   17.1885 C   0  0  0  0  0  0
   43.1249   10.5911   16.7057 C   0  0  0  0  0  0
   42.0677   11.2987   16.0797 C   0  0  0  0  0  0
   42.2747   12.7058   15.7360 C   0  0  0  0  0  0
   43.2945   13.6390   16.8022 S   0  0  0  0  0  0
   43.1230   15.0665   15.8203 C   0  0  0  0  0  0
   43.8438   16.2670   16.2757 C   0  0  0  0  0  0
   43.9175   17.2745   15.5228 O   0  0  0  0  0  0
   44.3785   16.2686   17.4099 O   0  5  0  0  0  0
   42.3216   14.8394   14.7277 C   0  0  0  0  0  0
   42.0266   15.7678   13.7930 O   0  0  0  0  0  0
   41.1219   16.7689   14.2325 C   0  0  0  0  0  0
   40.2175   17.1283   13.0754 C   0  0  0  0  0  0
   40.4219   18.2217   12.5167 O   0  0  0  0  0  0
   39.2997   16.3357   12.7948 O   0  5  0  0  0  0
   41.8522   13.4993   14.6966 C   0  0  0  0  0  0
   40.7903   12.8958   13.2536 Br  0  0  0  0  0  0
   40.8363   10.6393   15.8567 C   0  0  0  0  0  0
   35.5846    7.6685   14.5219 H   0  0  0  0  0  0
   36.0082    9.3970   14.5544 H   0  0  0  0  0  0
   36.7791    8.3138   13.3709 H   0  0  0  0  0  0
   39.3119    7.8637   16.7711 H   0  0  0  0  0  0
   41.5976    7.6570   17.3904 H   0  0  0  0  0  0
   43.7460    8.7598   17.6906 H   0  0  0  0  0  0
   44.0914   11.0636   16.8039 H   0  0  0  0  0  0
   40.5315   16.3851   15.0646 H   0  0  0  0  0  0
   41.6809   17.6463   14.5579 H   0  0  0  0  0  0
   40.0232   11.1332   15.3448 H   0  0  0  0  0  0
  1  2  1  0  0  0
  1 26  1  0  0  0
  1 27  1  0  0  0
  1 28  1  0  0  0
  2  3  1  0  0  0
  3  4  2  0  0  0
  3  5  1  0  0  0
  5  6  1  0  0  0
  5 29  1  0  0  0
  6 25  1  0  0  0
  6  7  2  0  0  0
  7  8  1  0  0  0
  7 30  1  0  0  0
  8  9  2  0  0  0
  8 31  1  0  0  0
  9 10  1  0  0  0
  9 32  1  0  0  0
 10 11  1  0  0  0
 10 25  2  0  0  0
 11 23  2  0  0  0
 11 12  1  0  0  0
 12 13  1  0  0  0
 13 14  1  0  0  0
 13 17  2  0  0  0
 14 15  2  0  0  0
 14 16  1  0  0  0
 17 18  1  0  0  0
 17 23  1  0  0  0
 18 19  1  0  0  0
 19 20  1  0  0  0
 19 33  1  0  0  0
 19 34  1  0  0  0
 20 21  2  0  0  0
 20 22  1  0  0  0
 23 24  1  0  0  0
 25 35  1  0  0  0
M  CHG  2  16  -1  22  -1
M  END
> <i_m_stars>
2

> <s_m_entry_id>
544

> <s_m_entry_name>
PTP1B_23471.1

> <r_user_dG.exp>
-7.75184064198728

> <r_m_Molecular_weight>
428.22245

> <s_m_Source_Path>
C:\Users\yujiethinkpad\Desktop\05A\PTP1B

> <s_m_Source_File>
PTP1B_23471.sdf

> <i_m_Source_File_Index>
1

> <s_m_job_name>
align_ligands_8606

> <i_phase_Input_Structure_Number>
22

> <i_phase_Structure_Number>
22

> <r_phase_Similarity_to_Reference>
0.75825334315161

> <i_phase_Reference_Structure>
1

> <s_phase_Alignment_Method>
snapped core

> <s_phase_Alignment_Reason>


> <s_phase_Core_SMARTS>
a1aaaa1-a2aaaaa2

> <s_f3d_frozen_atoms>
12 13 17 23 11 10 25 6 7 8 9 24 35 30 31 32

> <s_m_subgroup_title>
align_ligands_8606

> <s_m_subgroupid>
align_ligands_8606

> <b_m_subgroup_collapsed>
0

$$$$
