23486
                    3D
 Schrodinger Suite 2021-2.
 60 63  0  0  1  0            999 V2000
   40.4219   18.2217   12.5167 O   0  0  0  0  0  0
   40.2175   17.1283   13.0754 C   0  0  0  0  0  0
   39.2997   16.3357   12.7948 O   0  5  0  0  0  0
   41.1219   16.7689   14.2325 C   0  0  0  0  0  0
   42.0266   15.7678   13.7930 O   0  0  0  0  0  0
   42.3216   14.8394   14.7277 C   0  0  0  0  0  0
   41.8522   13.4993   14.6966 C   0  0  0  0  0  0
   40.8265   12.9922   13.4347 Cl  0  0  0  0  0  0
   42.2747   12.7058   15.7360 C   0  0  0  0  0  0
   42.0677   11.2987   16.0797 C   0  0  0  0  0  0
   43.1249   10.5911   16.7057 C   0  0  0  0  0  0
   42.9467    9.2847   17.1885 C   0  0  0  0  0  0
   41.7076    8.6576   17.0033 C   0  0  0  0  0  0
   40.6593    9.3104   16.3247 C   0  0  0  0  0  0
   39.4684    8.5904   16.1767 N   0  0  0  0  0  0
   38.6835    8.7934   14.9740 C   0  0  0  0  0  0
   39.3766    8.2549   13.6888 C   0  0  0  0  0  0
   39.3328    6.7184   13.5792 C   0  0  0  0  0  0
   37.8799    6.2003   13.6790 N   0  0  1  0  0  0
   37.8575    4.4631   13.5817 S   0  0  0  0  0  0
   37.1256    3.9623   14.7503 O   0  0  0  0  0  0
   39.2220    4.0177   13.2787 O   0  0  0  0  0  0
   36.8564    4.1494   12.1437 C   0  0  0  0  0  0
   36.4073    5.4530   11.5530 C   0  0  0  0  0  0
   37.2032    6.5851   11.6817 C   0  0  0  0  0  0
   36.7871    7.7929   11.1344 C   0  0  0  0  0  0
   35.5751    7.8687   10.4584 C   0  0  0  0  0  0
   34.7792    6.7366   10.3297 C   0  0  0  0  0  0
   35.1954    5.5287   10.8770 C   0  0  0  0  0  0
   37.2241    6.6723   14.9909 C   0  0  0  0  0  0
   37.2647    8.2109   15.1288 C   0  0  0  0  0  0
   40.8363   10.6393   15.8567 C   0  0  0  0  0  0
   43.2945   13.6390   16.8022 S   0  0  0  0  0  0
   43.1230   15.0665   15.8203 C   0  0  0  0  0  0
   43.8438   16.2670   16.2757 C   0  0  0  0  0  0
   43.9175   17.2745   15.5228 O   0  0  0  0  0  0
   44.3785   16.2686   17.4099 O   0  5  0  0  0  0
   40.5207   16.3934   15.0606 H   0  0  0  0  0  0
   41.6701   17.6545   14.5539 H   0  0  0  0  0  0
   44.0932   11.0548   16.8257 H   0  0  0  0  0  0
   43.7579    8.7802   17.6923 H   0  0  0  0  0  0
   41.5617    7.6579   17.3862 H   0  0  0  0  0  0
   39.2364    7.9285   16.9033 H   0  0  0  0  0  0
   38.6183    9.8721   14.8320 H   0  0  0  0  0  0
   38.9170    8.6942   12.8034 H   0  0  0  0  0  0
   40.4174    8.5785   13.6791 H   0  0  0  0  0  0
   39.7516    6.3805   12.6313 H   0  0  0  0  0  0
   39.9501    6.2654   14.3551 H   0  0  0  0  0  0
   37.4414    3.5989   11.4069 H   0  0  0  0  0  0
   35.9848    3.5604   12.4293 H   0  0  0  0  0  0
   38.1468    6.5261   12.2080 H   0  0  0  0  0  0
   37.4067    8.6743   11.2346 H   0  0  0  0  0  0
   35.2511    8.8091   10.0323 H   0  0  0  0  0  0
   33.8357    6.7956    9.8034 H   0  0  0  0  0  0
   34.5757    4.6473   10.7769 H   0  0  0  0  0  0
   36.1994    6.3007   14.9995 H   0  0  0  0  0  0
   37.7189    6.1988   15.8388 H   0  0  0  0  0  0
   36.8673    8.4866   16.1055 H   0  0  0  0  0  0
   36.5944    8.6575   14.3945 H   0  0  0  0  0  0
   40.0741   11.1785   15.3216 H   0  0  0  0  0  0
  1  2  2  0  0  0
  2  3  1  0  0  0
  2  4  1  0  0  0
  4  5  1  0  0  0
  4 38  1  0  0  0
  4 39  1  0  0  0
  5  6  1  0  0  0
  6 34  2  0  0  0
  6  7  1  0  0  0
  7  8  1  0  0  0
  7  9  2  0  0  0
  9 10  1  0  0  0
  9 33  1  0  0  0
 10 32  1  0  0  0
 10 11  2  0  0  0
 11 12  1  0  0  0
 11 40  1  0  0  0
 12 13  2  0  0  0
 12 41  1  0  0  0
 13 14  1  0  0  0
 13 42  1  0  0  0
 14 15  1  0  0  0
 14 32  2  0  0  0
 15 16  1  0  0  0
 15 43  1  0  0  0
 16 31  1  0  0  0
 16 17  1  0  0  0
 16 44  1  0  0  0
 17 18  1  0  0  0
 17 45  1  0  0  0
 17 46  1  0  0  0
 18 19  1  0  0  0
 18 47  1  0  0  0
 18 48  1  0  0  0
 19 20  1  0  0  0
 19 30  1  0  0  0
 20 21  2  0  0  0
 20 22  2  0  0  0
 20 23  1  0  0  0
 23 24  1  0  0  0
 23 49  1  0  0  0
 23 50  1  0  0  0
 24 29  1  0  0  0
 24 25  2  0  0  0
 25 26  1  0  0  0
 25 51  1  0  0  0
 26 27  2  0  0  0
 26 52  1  0  0  0
 27 28  1  0  0  0
 27 53  1  0  0  0
 28 29  2  0  0  0
 28 54  1  0  0  0
 29 55  1  0  0  0
 30 31  1  0  0  0
 30 56  1  0  0  0
 30 57  1  0  0  0
 31 58  1  0  0  0
 31 59  1  0  0  0
 32 60  1  0  0  0
 33 34  1  0  0  0
 34 35  1  0  0  0
 35 36  2  0  0  0
 35 37  1  0  0  0
M  CHG  2   3  -1  37  -1
M  END
> <i_m_stars>
2

> <s_m_entry_id>
535

> <s_m_entry_name>
PTP1B_23486.1

> <r_user_dG.exp>
-12.4697848806838

> <r_m_Molecular_weight>
563.05226

> <s_m_Source_Path>
C:\Users\yujiethinkpad\Desktop\05A\PTP1B

> <s_m_Source_File>
PTP1B_23486.sdf

> <i_m_Source_File_Index>
1

> <s_m_job_name>
align_ligands_8606

> <i_phase_Input_Structure_Number>
13

> <i_phase_Structure_Number>
13

> <r_phase_Similarity_to_Reference>
0.697828664750511

> <i_phase_Reference_Structure>
1

> <s_phase_Alignment_Method>
snapped core

> <s_phase_Alignment_Reason>


> <s_phase_Core_SMARTS>
a1aaaa1-a2aa(aaa2)AA3AAAAA3

> <s_f3d_frozen_atoms>
33 34 6 7 9 10 32 14 13 12 11 15 16 17 18 19 30 31 8 60 42 41 40 43 44 45 46 47 48 56 57 58 59

> <s_m_subgroup_title>
align_ligands_8606

> <s_m_subgroupid>
align_ligands_8606

> <b_m_subgroup_collapsed>
0

$$$$
