23484
                    3D
 Schrodinger Suite 2021-2.
 60 63  0  0  1  0            999 V2000
   40.4219   18.2217   12.5167 O   0  0  0  0  0  0
   40.2175   17.1283   13.0754 C   0  0  0  0  0  0
   39.2997   16.3357   12.7948 O   0  5  0  0  0  0
   41.1219   16.7689   14.2325 C   0  0  0  0  0  0
   42.0266   15.7678   13.7930 O   0  0  0  0  0  0
   42.3216   14.8394   14.7277 C   0  0  0  0  0  0
   41.8522   13.4993   14.6966 C   0  0  0  0  0  0
   42.2747   12.7058   15.7360 C   0  0  0  0  0  0
   42.0677   11.2987   16.0797 C   0  0  0  0  0  0
   43.1249   10.5911   16.7057 C   0  0  0  0  0  0
   42.9467    9.2847   17.1885 C   0  0  0  0  0  0
   41.7076    8.6576   17.0033 C   0  0  0  0  0  0
   40.6593    9.3104   16.3247 C   0  0  0  0  0  0
   39.4684    8.5904   16.1767 N   0  0  0  0  0  0
   38.6835    8.7934   14.9740 C   0  0  0  0  0  0
   39.3766    8.2549   13.6888 C   0  0  0  0  0  0
   39.3328    6.7184   13.5792 C   0  0  0  0  0  0
   37.8799    6.2003   13.6790 N   0  0  2  0  0  0
   37.0319    5.6620   12.2835 S   0  0  0  0  0  0
   35.8340    4.9522   12.7525 O   0  0  0  0  0  0
   37.9952    4.9867   11.3965 O   0  0  0  0  0  0
   36.4919    7.2425   11.4943 C   0  0  0  0  0  0
   35.5194    6.9136   10.3788 C   0  0  0  0  0  0
   35.9962    6.6236    9.0970 C   0  0  0  0  0  0
   35.1052    6.2789    8.0815 C   0  0  0  0  0  0
   33.7375    6.2238    8.3458 C   0  0  0  0  0  0
   33.2543    6.5220    9.6199 C   0  0  0  0  0  0
   34.1446    6.8696   10.6355 C   0  0  0  0  0  0
   37.2241    6.6723   14.9909 C   0  0  0  0  0  0
   37.2647    8.2109   15.1288 C   0  0  0  0  0  0
   40.8363   10.6393   15.8567 C   0  0  0  0  0  0
   43.2945   13.6390   16.8022 S   0  0  0  0  0  0
   43.1230   15.0665   15.8203 C   0  0  0  0  0  0
   43.8438   16.2670   16.2757 C   0  0  0  0  0  0
   43.9175   17.2745   15.5228 O   0  0  0  0  0  0
   44.3785   16.2686   17.4099 O   0  5  0  0  0  0
   40.5035   16.3847   15.0437 H   0  0  0  0  0  0
   41.6155   17.6651   14.6143 H   0  0  0  0  0  0
   41.2101   13.1455   13.9034 H   0  0  0  0  0  0
   44.0927   11.0551   16.8292 H   0  0  0  0  0  0
   43.7572    8.7809   17.6943 H   0  0  0  0  0  0
   41.5619    7.6580   17.3867 H   0  0  0  0  0  0
   39.2175    7.9601   16.9248 H   0  0  0  0  0  0
   38.6183    9.8721   14.8320 H   0  0  0  0  0  0
   38.9170    8.6942   12.8034 H   0  0  0  0  0  0
   40.4174    8.5785   13.6791 H   0  0  0  0  0  0
   39.7516    6.3805   12.6313 H   0  0  0  0  0  0
   39.9501    6.2654   14.3551 H   0  0  0  0  0  0
   35.9950    7.8373   12.2607 H   0  0  0  0  0  0
   37.3731    7.7984   11.1748 H   0  0  0  0  0  0
   37.0541    6.6780    8.8833 H   0  0  0  0  0  0
   35.4773    6.0568    7.0920 H   0  0  0  0  0  0
   33.0472    5.9465    7.5628 H   0  0  0  0  0  0
   32.1933    6.4826    9.8173 H   0  0  0  0  0  0
   33.7655    7.1067   11.6187 H   0  0  0  0  0  0
   36.1994    6.3007   14.9995 H   0  0  0  0  0  0
   37.7189    6.1988   15.8388 H   0  0  0  0  0  0
   36.8673    8.4866   16.1055 H   0  0  0  0  0  0
   36.5944    8.6575   14.3945 H   0  0  0  0  0  0
   40.0664   11.1693   15.3247 H   0  0  0  0  0  0
  1  2  2  0  0  0
  2  3  1  0  0  0
  2  4  1  0  0  0
  4  5  1  0  0  0
  4 37  1  0  0  0
  4 38  1  0  0  0
  5  6  1  0  0  0
  6 33  2  0  0  0
  6  7  1  0  0  0
  7  8  2  0  0  0
  7 39  1  0  0  0
  8  9  1  0  0  0
  8 32  1  0  0  0
  9 31  1  0  0  0
  9 10  2  0  0  0
 10 11  1  0  0  0
 10 40  1  0  0  0
 11 12  2  0  0  0
 11 41  1  0  0  0
 12 13  1  0  0  0
 12 42  1  0  0  0
 13 14  1  0  0  0
 13 31  2  0  0  0
 14 15  1  0  0  0
 14 43  1  0  0  0
 15 30  1  0  0  0
 15 16  1  0  0  0
 15 44  1  0  0  0
 16 17  1  0  0  0
 16 45  1  0  0  0
 16 46  1  0  0  0
 17 18  1  0  0  0
 17 47  1  0  0  0
 17 48  1  0  0  0
 18 19  1  0  0  0
 18 29  1  0  0  0
 19 20  2  0  0  0
 19 21  2  0  0  0
 19 22  1  0  0  0
 22 23  1  0  0  0
 22 49  1  0  0  0
 22 50  1  0  0  0
 23 28  1  0  0  0
 23 24  2  0  0  0
 24 25  1  0  0  0
 24 51  1  0  0  0
 25 26  2  0  0  0
 25 52  1  0  0  0
 26 27  1  0  0  0
 26 53  1  0  0  0
 27 28  2  0  0  0
 27 54  1  0  0  0
 28 55  1  0  0  0
 29 30  1  0  0  0
 29 56  1  0  0  0
 29 57  1  0  0  0
 30 58  1  0  0  0
 30 59  1  0  0  0
 31 60  1  0  0  0
 32 33  1  0  0  0
 33 34  1  0  0  0
 34 35  2  0  0  0
 34 36  1  0  0  0
M  CHG  2   3  -1  36  -1
M  END
> <i_m_stars>
2

> <s_m_entry_id>
533

> <s_m_entry_name>
PTP1B_23484.1

> <r_user_dG.exp>
-7.75184064198728

> <r_m_Molecular_weight>
528.60723

> <s_m_Source_Path>
C:\Users\yujiethinkpad\Desktop\05A\PTP1B

> <s_m_Source_File>
PTP1B_23484.sdf

> <i_m_Source_File_Index>
1

> <s_m_job_name>
align_ligands_8606

> <i_phase_Input_Structure_Number>
11

> <i_phase_Structure_Number>
11

> <r_phase_Similarity_to_Reference>
0.701207043690798

> <i_phase_Reference_Structure>
1

> <s_phase_Alignment_Method>
snapped core

> <s_phase_Alignment_Reason>


> <s_phase_Core_SMARTS>
a1aaaa1-a2aa(aaa2)AA3AAAAA3

> <s_f3d_frozen_atoms>
32 33 6 7 8 9 31 13 12 11 10 14 15 16 17 18 29 30 39 60 42 41 40 43 44 45 46 47 48 56 57 58 59

> <s_m_subgroup_title>
align_ligands_8606

> <s_m_subgroupid>
align_ligands_8606

> <b_m_subgroup_collapsed>
0

$$$$
