23480
                    3D
 Schrodinger Suite 2021-2.
 50 52  0  0  1  0            999 V2000
   35.2292    4.3161   12.1795 C   0  0  0  0  0  0
   36.0169    5.1146   13.0460 O   0  0  0  0  0  0
   37.2842    5.4223   12.7072 C   0  0  0  0  0  0
   37.8159    5.0522   11.6585 O   0  0  0  0  0  0
   37.8799    6.2003   13.6790 N   0  0  0  0  0  0
   37.2241    6.6723   14.9909 C   0  0  0  0  0  0
   37.2647    8.2109   15.1288 C   0  0  0  0  0  0
   38.6835    8.7934   14.9740 C   0  0  0  0  0  0
   39.4684    8.5904   16.1767 N   0  0  0  0  0  0
   40.6593    9.3104   16.3247 C   0  0  0  0  0  0
   41.7076    8.6576   17.0033 C   0  0  0  0  0  0
   42.9467    9.2847   17.1885 C   0  0  0  0  0  0
   43.1249   10.5911   16.7057 C   0  0  0  0  0  0
   42.0677   11.2987   16.0797 C   0  0  0  0  0  0
   42.2747   12.7058   15.7360 C   0  0  0  0  0  0
   43.2945   13.6390   16.8022 S   0  0  0  0  0  0
   43.1230   15.0665   15.8203 C   0  0  0  0  0  0
   43.8438   16.2670   16.2757 C   0  0  0  0  0  0
   43.9175   17.2745   15.5228 O   0  0  0  0  0  0
   44.3785   16.2686   17.4099 O   0  5  0  0  0  0
   42.3216   14.8394   14.7277 C   0  0  0  0  0  0
   42.0266   15.7678   13.7930 O   0  0  0  0  0  0
   41.1219   16.7689   14.2325 C   0  0  0  0  0  0
   40.2175   17.1283   13.0754 C   0  0  0  0  0  0
   40.4219   18.2217   12.5167 O   0  0  0  0  0  0
   39.2997   16.3357   12.7948 O   0  5  0  0  0  0
   41.8522   13.4993   14.6966 C   0  0  0  0  0  0
   40.7903   12.8958   13.2536 Br  0  0  0  0  0  0
   40.8363   10.6393   15.8567 C   0  0  0  0  0  0
   39.3766    8.2549   13.6888 C   0  0  0  0  0  0
   39.3328    6.7184   13.5792 C   0  0  0  0  0  0
   34.2386    4.1693   12.6097 H   0  0  0  0  0  0
   35.1106    4.7974   11.2079 H   0  0  0  0  0  0
   35.6850    3.3363   12.0315 H   0  0  0  0  0  0
   36.1907    6.3361   15.0762 H   0  0  0  0  0  0
   37.7579    6.2172   15.8252 H   0  0  0  0  0  0
   36.6185    8.6609   14.3751 H   0  0  0  0  0  0
   36.8597    8.5093   16.0958 H   0  0  0  0  0  0
   38.6222    9.8726   14.8344 H   0  0  0  0  0  0
   39.1042    7.9265   16.8453 H   0  0  0  0  0  0
   41.5970    7.6626   17.4006 H   0  0  0  0  0  0
   43.7435    8.7625   17.6972 H   0  0  0  0  0  0
   44.0864   11.0704   16.8179 H   0  0  0  0  0  0
   40.5386   16.3636   15.0596 H   0  0  0  0  0  0
   41.6422   17.6453   14.6231 H   0  0  0  0  0  0
   40.0282   11.1269   15.3303 H   0  0  0  0  0  0
   38.8940    8.6803   12.8089 H   0  0  0  0  0  0
   40.4146    8.5860   13.6578 H   0  0  0  0  0  0
   39.9793    6.2840   14.3417 H   0  0  0  0  0  0
   39.7448    6.4017   12.6211 H   0  0  0  0  0  0
  1  2  1  0  0  0
  1 32  1  0  0  0
  1 33  1  0  0  0
  1 34  1  0  0  0
  2  3  1  0  0  0
  3  4  2  0  0  0
  3  5  1  0  0  0
  5 31  1  0  0  0
  5  6  1  0  0  0
  6  7  1  0  0  0
  6 35  1  0  0  0
  6 36  1  0  0  0
  7  8  1  0  0  0
  7 37  1  0  0  0
  7 38  1  0  0  0
  8  9  1  0  0  0
  8 30  1  0  0  0
  8 39  1  0  0  0
  9 10  1  0  0  0
  9 40  1  0  0  0
 10 29  1  0  0  0
 10 11  2  0  0  0
 11 12  1  0  0  0
 11 41  1  0  0  0
 12 13  2  0  0  0
 12 42  1  0  0  0
 13 14  1  0  0  0
 13 43  1  0  0  0
 14 15  1  0  0  0
 14 29  2  0  0  0
 15 27  2  0  0  0
 15 16  1  0  0  0
 16 17  1  0  0  0
 17 18  1  0  0  0
 17 21  2  0  0  0
 18 19  2  0  0  0
 18 20  1  0  0  0
 21 22  1  0  0  0
 21 27  1  0  0  0
 22 23  1  0  0  0
 23 24  1  0  0  0
 23 44  1  0  0  0
 23 45  1  0  0  0
 24 25  2  0  0  0
 24 26  1  0  0  0
 27 28  1  0  0  0
 29 46  1  0  0  0
 30 31  1  0  0  0
 30 47  1  0  0  0
 30 48  1  0  0  0
 31 49  1  0  0  0
 31 50  1  0  0  0
M  CHG  2  20  -1  26  -1
M  END
> <i_m_stars>
2

> <s_m_entry_id>
530

> <s_m_entry_name>
PTP1B_23480.1

> <r_user_dG.exp>
-8.71754822596421

> <r_m_Molecular_weight>
511.35663

> <s_m_Source_Path>
C:\Users\yujiethinkpad\Desktop\05A\PTP1B

> <s_m_Source_File>
PTP1B_23480.sdf

> <i_m_Source_File_Index>
1

> <s_m_job_name>
align_ligands_8606

> <i_phase_Input_Structure_Number>
8

> <i_phase_Structure_Number>
8

> <r_phase_Similarity_to_Reference>
0.91166700951732

> <i_phase_Reference_Structure>
1

> <s_phase_Alignment_Method>
snapped core

> <s_phase_Alignment_Reason>


> <s_phase_Core_SMARTS>
a1aaaa1-a2aa(aaa2)AA3AAAAA3

> <s_f3d_frozen_atoms>
16 17 21 27 15 14 29 10 11 12 13 9 8 30 31 5 6 7 28 46 41 42 43 40 39 47 48 49 50 35 36 37 38

> <s_m_subgroup_title>
align_ligands_8606

> <s_m_subgroupid>
align_ligands_8606

> <b_m_subgroup_collapsed>
0

$$$$
