23485
                    3D
 Schrodinger Suite 2021-2.
 63 66  0  0  1  0            999 V2000
   40.9672   13.0123   13.5877 C   0  0  0  0  0  0
   41.8522   13.4993   14.6966 C   0  0  0  0  0  0
   42.3216   14.8394   14.7277 C   0  0  0  0  0  0
   42.0266   15.7678   13.7930 O   0  0  0  0  0  0
   41.1219   16.7689   14.2325 C   0  0  0  0  0  0
   40.2175   17.1283   13.0754 C   0  0  0  0  0  0
   40.4219   18.2217   12.5167 O   0  0  0  0  0  0
   39.2997   16.3357   12.7948 O   0  5  0  0  0  0
   43.1230   15.0665   15.8203 C   0  0  0  0  0  0
   43.8438   16.2670   16.2757 C   0  0  0  0  0  0
   43.9175   17.2745   15.5228 O   0  0  0  0  0  0
   44.3785   16.2686   17.4099 O   0  5  0  0  0  0
   43.2945   13.6390   16.8022 S   0  0  0  0  0  0
   42.2747   12.7058   15.7360 C   0  0  0  0  0  0
   42.0677   11.2987   16.0797 C   0  0  0  0  0  0
   43.1249   10.5911   16.7057 C   0  0  0  0  0  0
   42.9467    9.2847   17.1885 C   0  0  0  0  0  0
   41.7076    8.6576   17.0033 C   0  0  0  0  0  0
   40.6593    9.3104   16.3247 C   0  0  0  0  0  0
   39.4684    8.5904   16.1767 N   0  0  0  0  0  0
   38.6835    8.7934   14.9740 C   0  0  0  0  0  0
   39.3766    8.2549   13.6888 C   0  0  0  0  0  0
   39.3328    6.7184   13.5792 C   0  0  0  0  0  0
   37.8799    6.2003   13.6790 N   0  0  1  0  0  0
   37.8593    4.4629   13.5854 S   0  0  0  0  0  0
   38.5246    3.9456   14.7862 O   0  0  0  0  0  0
   38.2998    4.0854   12.2380 O   0  0  0  0  0  0
   36.1284    4.0692   13.7165 C   0  0  0  0  0  0
   35.3820    4.7140   12.5864 C   0  0  0  0  0  0
   35.8418    5.9067   12.0409 C   0  0  0  0  0  0
   35.1502    6.5042   10.9938 C   0  0  0  0  0  0
   33.9988    5.9089   10.4922 C   0  0  0  0  0  0
   33.5390    4.7162   11.0378 C   0  0  0  0  0  0
   34.2306    4.1187   12.0849 C   0  0  0  0  0  0
   37.2241    6.6723   14.9909 C   0  0  0  0  0  0
   37.2647    8.2109   15.1288 C   0  0  0  0  0  0
   40.8363   10.6393   15.8567 C   0  0  0  0  0  0
   40.7761   13.8281   12.8904 H   0  0  0  0  0  0
   41.4595   12.1936   13.0628 H   0  0  0  0  0  0
   40.0229   12.6614   14.0039 H   0  0  0  0  0  0
   40.5315   16.3851   15.0646 H   0  0  0  0  0  0
   41.6809   17.6463   14.5579 H   0  0  0  0  0  0
   44.0926   11.0557   16.8250 H   0  0  0  0  0  0
   43.7576    8.7808   17.6935 H   0  0  0  0  0  0
   41.5601    7.6595   17.3898 H   0  0  0  0  0  0
   39.1839    8.0050   16.9489 H   0  0  0  0  0  0
   38.6183    9.8721   14.8320 H   0  0  0  0  0  0
   38.9170    8.6942   12.8034 H   0  0  0  0  0  0
   40.4174    8.5785   13.6791 H   0  0  0  0  0  0
   39.7516    6.3805   12.6313 H   0  0  0  0  0  0
   39.9501    6.2654   14.3551 H   0  0  0  0  0  0
   35.9970    2.9882   13.6688 H   0  0  0  0  0  0
   35.7422    4.4406   14.6658 H   0  0  0  0  0  0
   36.7382    6.3702   12.4314 H   0  0  0  0  0  0
   35.5082    7.4327   10.5690 H   0  0  0  0  0  0
   33.4604    6.3740    9.6770 H   0  0  0  0  0  0
   32.6426    4.2527   10.6473 H   0  0  0  0  0  0
   33.8726    3.1902   12.5096 H   0  0  0  0  0  0
   36.1994    6.3007   14.9995 H   0  0  0  0  0  0
   37.7189    6.1988   15.8388 H   0  0  0  0  0  0
   36.8673    8.4866   16.1055 H   0  0  0  0  0  0
   36.5944    8.6575   14.3945 H   0  0  0  0  0  0
   40.0728   11.1790   15.3253 H   0  0  0  0  0  0
  1  2  1  0  0  0
  1 38  1  0  0  0
  1 39  1  0  0  0
  1 40  1  0  0  0
  2 14  2  0  0  0
  2  3  1  0  0  0
  3  4  1  0  0  0
  3  9  2  0  0  0
  4  5  1  0  0  0
  5  6  1  0  0  0
  5 41  1  0  0  0
  5 42  1  0  0  0
  6  7  2  0  0  0
  6  8  1  0  0  0
  9 10  1  0  0  0
  9 13  1  0  0  0
 10 11  2  0  0  0
 10 12  1  0  0  0
 13 14  1  0  0  0
 14 15  1  0  0  0
 15 37  1  0  0  0
 15 16  2  0  0  0
 16 17  1  0  0  0
 16 43  1  0  0  0
 17 18  2  0  0  0
 17 44  1  0  0  0
 18 19  1  0  0  0
 18 45  1  0  0  0
 19 20  1  0  0  0
 19 37  2  0  0  0
 20 21  1  0  0  0
 20 46  1  0  0  0
 21 36  1  0  0  0
 21 22  1  0  0  0
 21 47  1  0  0  0
 22 23  1  0  0  0
 22 48  1  0  0  0
 22 49  1  0  0  0
 23 24  1  0  0  0
 23 50  1  0  0  0
 23 51  1  0  0  0
 24 25  1  0  0  0
 24 35  1  0  0  0
 25 26  2  0  0  0
 25 27  2  0  0  0
 25 28  1  0  0  0
 28 29  1  0  0  0
 28 52  1  0  0  0
 28 53  1  0  0  0
 29 34  1  0  0  0
 29 30  2  0  0  0
 30 31  1  0  0  0
 30 54  1  0  0  0
 31 32  2  0  0  0
 31 55  1  0  0  0
 32 33  1  0  0  0
 32 56  1  0  0  0
 33 34  2  0  0  0
 33 57  1  0  0  0
 34 58  1  0  0  0
 35 36  1  0  0  0
 35 59  1  0  0  0
 35 60  1  0  0  0
 36 61  1  0  0  0
 36 62  1  0  0  0
 37 63  1  0  0  0
M  CHG  2   8  -1  12  -1
M  END
> <i_m_stars>
2

> <s_m_entry_id>
534

> <s_m_entry_name>
PTP1B_23485.1

> <r_user_dG.exp>
-11.0135614094467

> <r_m_Molecular_weight>
542.63432

> <s_m_Source_Path>
C:\Users\yujiethinkpad\Desktop\05A\PTP1B

> <s_m_Source_File>
PTP1B_23485.sdf

> <i_m_Source_File_Index>
1

> <s_m_job_name>
align_ligands_8606

> <i_phase_Input_Structure_Number>
12

> <i_phase_Structure_Number>
12

> <r_phase_Similarity_to_Reference>
0.681954756081552

> <i_phase_Reference_Structure>
1

> <s_phase_Alignment_Method>
snapped core

> <s_phase_Alignment_Reason>


> <s_phase_Core_SMARTS>
a1aaaa1-a2aa(aaa2)AA3AAAAA3

> <s_f3d_frozen_atoms>
13 9 3 2 14 15 37 19 18 17 16 20 21 22 23 24 35 36 63 45 44 43 46 47 48 49 50 51 59 60 61 62

> <s_m_subgroup_title>
align_ligands_8606

> <s_m_subgroupid>
align_ligands_8606

> <b_m_subgroup_collapsed>
0

$$$$
