CAT-13k
                    3D
 Schrodinger Suite 2021-2.
 45 48  0  0  1  0            999 V2000
   11.8029   -2.1616    1.4336 C   0  0  0  0  0  0
   13.0647   -2.4911    0.7578 N   0  0  0  0  0  0
   14.2956   -2.6092    1.2935 C   0  0  0  0  0  0
   14.5823   -2.5340    2.5834 N   0  0  0  0  0  0
   15.2517   -2.8362    0.3927 N   0  3  0  0  0  0
   14.6656   -3.0067   -0.9349 C   0  0  2  0  0  0
   14.8750   -4.4894   -1.3382 C   0  0  0  0  0  0
   13.8101   -5.3596   -1.7059 C   0  0  0  0  0  0
   14.0812   -6.7168   -1.9676 C   0  0  0  0  0  0
   15.4130   -7.1694   -1.8716 C   0  0  0  0  0  0
   16.4494   -6.3549   -1.5593 N   0  0  0  0  0  0
   16.1801   -5.0521   -1.2946 C   0  0  0  0  0  0
   15.1995   -1.9366   -1.9067 C   0  0  0  0  0  0
   15.6648   -2.2966   -3.1956 C   0  0  0  0  0  0
   16.0930   -1.3059   -4.1006 C   0  0  0  0  0  0
   16.0401    0.0548   -3.7389 C   0  0  0  0  0  0
   15.5672    0.4552   -2.4652 C   0  0  0  0  0  0
   15.3567    1.9015   -2.1961 C   0  0  0  0  0  0
   14.5847    2.6453   -3.1274 C   0  0  0  0  0  0
   14.2392    3.9958   -2.8963 C   0  0  0  0  0  0
   14.6120    4.6164   -1.6926 C   0  0  0  0  0  0
   15.3260    3.8777   -0.7292 C   0  0  0  0  0  0
   15.3855    4.5150    0.8802 Cl  0  0  0  0  0  0
   15.7854    2.5628   -1.0165 C   0  0  0  0  0  0
   15.1758   -0.5555   -1.5467 C   0  0  0  0  0  0
   13.1781   -2.6854   -0.6443 C   0  0  0  0  0  0
   12.2435   -2.6021   -1.4474 O   0  0  0  0  0  0
   11.7841   -1.0868    1.5618 H   0  0  0  0  0  0
   10.9344   -2.4463    0.8382 H   0  0  0  0  0  0
   11.7304   -2.6679    2.3940 H   0  0  0  0  0  0
   15.5961   -2.5384    2.9040 H   0  0  0  0  0  0
   16.2458   -2.9867    0.6258 H   0  0  0  0  0  0
   12.7852   -5.0312   -1.7785 H   0  0  0  0  0  0
   13.2890   -7.4022   -2.2258 H   0  0  0  0  0  0
   15.6534   -8.2083   -2.0396 H   0  0  0  0  0  0
   17.0303   -4.4438   -1.0232 H   0  0  0  0  0  0
   15.6877   -3.3273   -3.5163 H   0  0  0  0  0  0
   16.4440   -1.5850   -5.0837 H   0  0  0  0  0  0
   16.3391    0.7989   -4.4637 H   0  0  0  0  0  0
   14.2361    2.1712   -4.0344 H   0  0  0  0  0  0
   13.6564    4.5394   -3.6257 H   0  0  0  0  0  0
   14.2727    5.6188   -1.4738 H   0  0  0  0  0  0
   16.2919    1.9996   -0.2485 H   0  0  0  0  0  0
   14.7948   -0.2541   -0.5811 H   0  0  0  0  0  0
   13.8221   -2.3971    3.2468 H   0  0  0  0  0  0
  1  2  1  0  0  0
  1 28  1  0  0  0
  1 29  1  0  0  0
  1 30  1  0  0  0
  2  3  1  0  0  0
  2 26  1  0  0  0
  3  4  1  0  0  0
  3  5  2  0  0  0
  4 31  1  0  0  0
  4 45  1  0  0  0
  5  6  1  0  0  0
  5 32  1  0  0  0
  6  7  1  0  0  0
  6 13  1  0  0  0
  6 26  1  0  0  0
  7  8  2  0  0  0
  7 12  1  0  0  0
  8  9  1  0  0  0
  8 33  1  0  0  0
  9 10  2  0  0  0
  9 34  1  0  0  0
 10 11  1  0  0  0
 10 35  1  0  0  0
 11 12  2  0  0  0
 12 36  1  0  0  0
 13 14  2  0  0  0
 13 25  1  0  0  0
 14 15  1  0  0  0
 14 37  1  0  0  0
 15 16  2  0  0  0
 15 38  1  0  0  0
 16 17  1  0  0  0
 16 39  1  0  0  0
 17 18  1  0  0  0
 17 25  2  0  0  0
 18 19  2  0  0  0
 18 24  1  0  0  0
 19 20  1  0  0  0
 19 40  1  0  0  0
 20 21  2  0  0  0
 20 41  1  0  0  0
 21 22  1  0  0  0
 21 42  1  0  0  0
 22 23  1  0  0  0
 22 24  2  0  0  0
 24 43  1  0  0  0
 25 44  1  0  0  0
 26 27  2  0  0  0
M  CHG  1   5   1
M  END
> <s_m_entry_id>
1385

> <s_m_entry_name>
Bace_CAT-13k.1

> <s_m_Source_Path>
C:\Users\yujiethinkpad\Desktop\05A\BACE

> <s_m_Source_File>
Bace_CAT-13k.sdf

> <i_m_Source_File_Index>
1

> <s_i_glide_gridfile>
glide-grid_Bace

> <r_i_docking_score>
-6.86933846676047

> <r_i_glide_ecoul>
-15.3422794342041

> <r_i_glide_einternal>
2.15072965621948

> <r_i_glide_emodel>
-53.7494688358719

> <r_i_glide_energy>
-39.2852611541748

> <r_i_glide_erotb>
0.407083485992964

> <r_i_glide_esite>
-0.192714921406415

> <r_i_glide_evdw>
-23.9429817199707

> <r_i_glide_gscore>
-6.86933846676047

> <r_i_glide_hbond>
-0.261118831092494

> <r_i_glide_ligand_efficiency>
-0.254419943213351

> <r_i_glide_ligand_efficiency_ln>
-1.59906874516625

> <r_i_glide_ligand_efficiency_sa>
-0.763259828801525

> <r_i_glide_lipo>
-2.28891678562909

> <r_i_glide_metal>
0

> <r_i_glide_rewards>
-1.03518041349628

> <i_i_glide_confnum>
22

> <i_i_glide_lignum>
30

> <i_i_glide_posenum>
224

> <i_i_glide_rotatable_bonds>
3

> <r_i_glide_eff_state_penalty>
0

> <s_m_job_name>
glide-dock_SP_bace_other

> <r_user_dG.exp>
-9.703

> <r_m_Molecular_weight>
377.85681

> <r_glide_shape_similarity>
0.947830140590668

> <s_m_subgroup_title>
glide-dock_SP_bace_other_lib1

> <s_m_subgroupid>
glide-dock_SP_bace_other_lib1

> <b_m_subgroup_collapsed>
0

$$$$
