CAT-13o
                    3D
 Schrodinger Suite 2021-2.
 42 45  0  0  1  0            999 V2000
   11.8362   -2.3953    1.3898 C   0  0  0  0  0  0
   13.1011   -2.5880    0.6934 N   0  0  0  0  0  0
   14.3161   -2.6438    1.2349 C   0  0  0  0  0  0
   14.5818   -2.5551    2.5146 N   0  0  0  0  0  0
   15.2817   -2.8220    0.3600 N   0  3  0  0  0  0
   14.7209   -3.0080   -0.9541 C   0  0  1  0  0  0
   15.2105   -1.9338   -1.9089 C   0  0  0  0  0  0
   15.6662   -2.2879   -3.1862 C   0  0  0  0  0  0
   16.0813   -1.3048   -4.0850 C   0  0  0  0  0  0
   16.0271    0.0422   -3.7275 C   0  0  0  0  0  0
   15.5614    0.4336   -2.4666 C   0  0  0  0  0  0
   15.3488    1.8602   -2.2270 C   0  0  0  0  0  0
   14.5718    2.5608   -3.1635 C   0  0  0  0  0  0
   14.2044    3.8964   -2.9610 C   0  0  0  0  0  0
   14.5842    4.5416   -1.7871 C   0  0  0  0  0  0
   15.3132    3.8397   -0.8280 C   0  0  0  0  0  0
   15.3902    4.5148    0.7454 Cl  0  0  0  0  0  0
   15.7849    2.5393   -1.0818 C   0  0  0  0  0  0
   15.1764   -0.5636   -1.5501 C   0  0  0  0  0  0
   14.9692   -4.4466   -1.3395 C   0  0  0  0  0  0
   16.1852   -4.9911   -1.2462 N   0  0  0  0  0  0
   16.2212   -6.3405   -1.5739 C   0  0  0  0  0  0
   15.0022   -6.8352   -1.9389 C   0  0  0  0  0  0
   13.7700   -5.6162   -1.8702 S   0  0  0  0  0  0
   13.2392   -2.7728   -0.6914 C   0  0  0  0  0  0
   12.3176   -2.7182   -1.5009 O   0  0  0  0  0  0
   11.8997   -1.4852    1.9633 H   0  0  0  0  0  0
   10.9886   -2.3120    0.7086 H   0  0  0  0  0  0
   11.6507   -3.2229    2.0744 H   0  0  0  0  0  0
   15.5845   -2.5464    2.8389 H   0  0  0  0  0  0
   16.2555   -3.0257    0.6009 H   0  0  0  0  0  0
   15.7032   -3.3173   -3.5107 H   0  0  0  0  0  0
   16.4319   -1.5827   -5.0686 H   0  0  0  0  0  0
   16.3236    0.7850   -4.4552 H   0  0  0  0  0  0
   14.2171    2.0611   -4.0537 H   0  0  0  0  0  0
   13.6002    4.4127   -3.6926 H   0  0  0  0  0  0
   14.2333    5.5435   -1.5842 H   0  0  0  0  0  0
   16.3137    2.0026   -0.3092 H   0  0  0  0  0  0
   14.7971   -0.2627   -0.5836 H   0  0  0  0  0  0
   17.1601   -6.8717   -1.5155 H   0  0  0  0  0  0
   14.7533   -7.8416   -2.2406 H   0  0  0  0  0  0
   13.8190   -2.4351    3.1668 H   0  0  0  0  0  0
  1  2  1  0  0  0
  1 27  1  0  0  0
  1 28  1  0  0  0
  1 29  1  0  0  0
  2  3  1  0  0  0
  2 25  1  0  0  0
  3  4  1  0  0  0
  3  5  2  0  0  0
  4 30  1  0  0  0
  4 42  1  0  0  0
  5  6  1  0  0  0
  5 31  1  0  0  0
  6  7  1  0  0  0
  6 20  1  0  0  0
  6 25  1  0  0  0
  7  8  2  0  0  0
  7 19  1  0  0  0
  8  9  1  0  0  0
  8 32  1  0  0  0
  9 10  2  0  0  0
  9 33  1  0  0  0
 10 11  1  0  0  0
 10 34  1  0  0  0
 11 12  1  0  0  0
 11 19  2  0  0  0
 12 13  2  0  0  0
 12 18  1  0  0  0
 13 14  1  0  0  0
 13 35  1  0  0  0
 14 15  2  0  0  0
 14 36  1  0  0  0
 15 16  1  0  0  0
 15 37  1  0  0  0
 16 17  1  0  0  0
 16 18  2  0  0  0
 18 38  1  0  0  0
 19 39  1  0  0  0
 20 21  2  0  0  0
 20 24  1  0  0  0
 21 22  1  0  0  0
 22 23  2  0  0  0
 22 40  1  0  0  0
 23 24  1  0  0  0
 23 41  1  0  0  0
 25 26  2  0  0  0
M  CHG  1   5   1
M  END
> <s_m_entry_id>
1402

> <s_m_entry_name>
Bace_CAT-13o.1

> <s_m_Source_Path>
C:\Users\yujiethinkpad\Desktop\05A\BACE

> <s_m_Source_File>
Bace_CAT-13o.sdf

> <i_m_Source_File_Index>
1

> <s_i_glide_gridfile>
glide-grid_Bace

> <r_i_docking_score>
-6.5591037519915

> <r_i_glide_ecoul>
-12.6343193054199

> <r_i_glide_einternal>
1.52346122264862

> <r_i_glide_emodel>
-52.80287329246

> <r_i_glide_energy>
-38.9429779052734

> <r_i_glide_erotb>
0.395697984678846

> <r_i_glide_esite>
-0.192100674059799

> <r_i_glide_evdw>
-26.3086585998535

> <r_i_glide_gscore>
-6.5591037519915

> <r_i_glide_hbond>
-0.279419697042155

> <r_i_glide_ligand_efficiency>
-0.252273221230442

> <r_i_glide_ligand_efficiency_ln>
-1.54038399398037

> <r_i_glide_ligand_efficiency_sa>
-0.747358425247993

> <r_i_glide_lipo>
-2.25140352715542

> <r_i_glide_metal>
0

> <r_i_glide_rewards>
-1.02129701260731

> <i_i_glide_confnum>
7

> <i_i_glide_lignum>
33

> <i_i_glide_posenum>
58

> <i_i_glide_rotatable_bonds>
3

> <r_i_glide_eff_state_penalty>
0

> <s_m_job_name>
glide-dock_SP_bace_other

> <r_user_dG.exp>
-8.543

> <r_m_Molecular_weight>
383.88257

> <r_glide_shape_similarity>
0.940003871917725

> <s_m_subgroup_title>
glide-dock_SP_bace_other_lib1

> <s_m_subgroupid>
glide-dock_SP_bace_other_lib1

> <b_m_subgroup_collapsed>
0

$$$$
