CAT-4o
                    3D
 Schrodinger Suite 2021-2.
 45 48  0  0  1  0            999 V2000
   11.7975   -2.1566    1.4176 C   0  0  0  0  0  0
   13.0562   -2.4905    0.7379 N   0  0  0  0  0  0
   14.2903   -2.5889    1.2666 C   0  0  0  0  0  0
   14.5848   -2.4720    2.5461 N   0  0  0  0  0  0
   15.2455   -2.8276    0.3727 N   0  3  0  0  0  0
   14.6551   -3.0074   -0.9518 C   0  0  2  0  0  0
   14.8733   -4.4873   -1.3432 C   0  0  0  0  0  0
   16.1901   -5.0112   -1.2764 C   0  0  0  0  0  0
   16.4426   -6.3729   -1.5411 C   0  0  0  0  0  0
   15.3763   -7.2343   -1.8765 C   0  0  0  0  0  0
   14.0648   -6.7259   -1.9776 C   0  0  0  0  0  0
   13.8123   -5.3632   -1.7174 C   0  0  0  0  0  0
   15.1895   -1.9412   -1.9237 C   0  0  0  0  0  0
   15.6547   -2.2911   -3.2157 C   0  0  0  0  0  0
   16.0732   -1.2874   -4.1127 C   0  0  0  0  0  0
   16.0141    0.0716   -3.7376 C   0  0  0  0  0  0
   15.5618    0.4499   -2.4503 C   0  0  0  0  0  0
   15.4578    1.8742   -2.0636 C   0  0  0  0  0  0
   14.7231    2.8012   -2.8434 C   0  0  0  0  0  0
   14.5251    4.1007   -2.5073 N   0  0  0  0  0  0
   15.0387    4.5368   -1.3335 C   0  0  0  0  0  0
   15.7842    3.7020   -0.4741 C   0  0  0  0  0  0
   16.1847    4.1145    0.7533 F   0  0  0  0  0  0
   16.0317    2.3709   -0.8727 C   0  0  0  0  0  0
   15.1716   -0.5668   -1.5480 C   0  0  0  0  0  0
   13.1681   -2.6900   -0.6611 C   0  0  0  0  0  0
   12.2338   -2.6023   -1.4629 O   0  0  0  0  0  0
   11.7237   -2.6727    2.3713 H   0  0  0  0  0  0
   11.7882   -1.0851    1.5614 H   0  0  0  0  0  0
   10.9252   -2.4274    0.8209 H   0  0  0  0  0  0
   15.5999   -2.4413    2.8656 H   0  0  0  0  0  0
   16.2368   -2.9915    0.6054 H   0  0  0  0  0  0
   17.0164   -4.3693   -1.0092 H   0  0  0  0  0  0
   17.4490   -6.7573   -1.4724 H   0  0  0  0  0  0
   15.5599   -8.2853   -2.0547 H   0  0  0  0  0  0
   13.2556   -7.3830   -2.2549 H   0  0  0  0  0  0
   12.7901   -5.0265   -1.8166 H   0  0  0  0  0  0
   15.6801   -3.3200   -3.5435 H   0  0  0  0  0  0
   16.4232   -1.5543   -5.0994 H   0  0  0  0  0  0
   16.3199    0.8265   -4.4490 H   0  0  0  0  0  0
   14.2590    2.4853   -3.7660 H   0  0  0  0  0  0
   14.8253    5.5605   -1.0601 H   0  0  0  0  0  0
   16.5629    1.7050   -0.2080 H   0  0  0  0  0  0
   14.8159   -0.2807   -0.5674 H   0  0  0  0  0  0
   13.8243   -2.3537    3.2125 H   0  0  0  0  0  0
  1  2  1  0  0  0
  1 28  1  0  0  0
  1 29  1  0  0  0
  1 30  1  0  0  0
  2  3  1  0  0  0
  2 26  1  0  0  0
  3  4  1  0  0  0
  3  5  2  0  0  0
  4 31  1  0  0  0
  4 45  1  0  0  0
  5  6  1  0  0  0
  5 32  1  0  0  0
  6  7  1  0  0  0
  6 13  1  0  0  0
  6 26  1  0  0  0
  7  8  2  0  0  0
  7 12  1  0  0  0
  8  9  1  0  0  0
  8 33  1  0  0  0
  9 10  2  0  0  0
  9 34  1  0  0  0
 10 11  1  0  0  0
 10 35  1  0  0  0
 11 12  2  0  0  0
 11 36  1  0  0  0
 12 37  1  0  0  0
 13 14  2  0  0  0
 13 25  1  0  0  0
 14 15  1  0  0  0
 14 38  1  0  0  0
 15 16  2  0  0  0
 15 39  1  0  0  0
 16 17  1  0  0  0
 16 40  1  0  0  0
 17 18  1  0  0  0
 17 25  2  0  0  0
 18 19  2  0  0  0
 18 24  1  0  0  0
 19 20  1  0  0  0
 19 41  1  0  0  0
 20 21  2  0  0  0
 21 22  1  0  0  0
 21 42  1  0  0  0
 22 23  1  0  0  0
 22 24  2  0  0  0
 24 43  1  0  0  0
 25 44  1  0  0  0
 26 27  2  0  0  0
M  CHG  1   5   1
M  END
> <s_m_entry_id>
1397

> <s_m_entry_name>
Bace_CAT-4o.1

> <s_m_Source_Path>
C:\Users\yujiethinkpad\Desktop\05A\BACE

> <s_m_Source_File>
Bace_CAT-4o.sdf

> <i_m_Source_File_Index>
1

> <s_i_glide_gridfile>
glide-grid_Bace

> <r_i_docking_score>
-6.68747882172536

> <r_i_glide_ecoul>
-14.3770332336426

> <r_i_glide_einternal>
1.15414798259735

> <r_i_glide_emodel>
-49.3532210547822

> <r_i_glide_energy>
-34.4971942901611

> <r_i_glide_erotb>
0.440796631038344

> <r_i_glide_esite>
-0.192440348814945

> <r_i_glide_evdw>
-20.1201610565186

> <r_i_glide_gscore>
-6.68747882172536

> <r_i_glide_hbond>
-0.259594874041592

> <r_i_glide_ligand_efficiency>
-0.247684400804643

> <r_i_glide_ligand_efficiency_ln>
-1.55673481799265

> <r_i_glide_ligand_efficiency_sa>
-0.743053201597602

> <r_i_glide_lipo>
-2.05813317262108

> <r_i_glide_metal>
0

> <r_i_glide_rewards>
-1.45554401941377

> <i_i_glide_confnum>
15

> <i_i_glide_lignum>
18

> <i_i_glide_posenum>
186

> <i_i_glide_rotatable_bonds>
3

> <r_i_glide_eff_state_penalty>
0

> <s_m_job_name>
glide-dock_SP_bace_other

> <r_user_dG.exp>
-9.383

> <r_m_Molecular_weight>
361.40221

> <r_glide_shape_similarity>
0.967391550540924

> <s_m_subgroup_title>
glide-dock_SP_bace_other_lib1

> <s_m_subgroupid>
glide-dock_SP_bace_other_lib1

> <b_m_subgroup_collapsed>
0

$$$$
