CAT-13d
                    3D
 Schrodinger Suite 2021-2.
 43 46  0  0  1  0            999 V2000
   11.8509   -2.0127    1.2423 C   0  0  0  0  0  0
   13.1000   -2.4382    0.6163 N   0  0  0  0  0  0
   14.3130   -2.4820    1.1616 C   0  0  0  0  0  0
   14.5849   -2.2028    2.4054 N   0  0  0  0  0  0
   15.2714   -2.8346    0.3337 N   0  3  0  0  0  0
   14.7130   -3.0824   -0.9671 C   0  0  1  0  0  0
   15.2324   -2.0052   -1.9396 C   0  0  0  0  0  0
   15.6878   -2.3206   -3.2265 C   0  0  0  0  0  0
   16.1014   -1.3187   -4.1072 C   0  0  0  0  0  0
   16.0438    0.0232   -3.7346 C   0  0  0  0  0  0
   15.5744    0.3960   -2.4713 C   0  0  0  0  0  0
   15.3501    1.8237   -2.2238 C   0  0  0  0  0  0
   14.5704    2.5186   -3.1633 C   0  0  0  0  0  0
   14.2004    3.8549   -2.9698 C   0  0  0  0  0  0
   14.5803    4.5105   -1.8016 C   0  0  0  0  0  0
   15.3104    3.8175   -0.8368 C   0  0  0  0  0  0
   15.3850    4.5147    0.7277 Cl  0  0  0  0  0  0
   15.7849    2.5147   -1.0825 C   0  0  0  0  0  0
   15.1993   -0.6261   -1.5720 C   0  0  0  0  0  0
   14.8652   -4.6055   -1.1502 C   0  0  0  0  0  0
   14.6137   -5.4255   -2.3821 C   0  0  0  0  0  0
   16.0130   -5.3203   -1.8047 C   0  0  0  0  0  0
   13.2389   -2.7904   -0.7357 C   0  0  0  0  0  0
   12.3233   -2.8194   -1.5515 O   0  0  0  0  0  0
   10.9849   -2.4400    0.7353 H   0  0  0  0  0  0
   11.8019   -2.3106    2.2885 H   0  0  0  0  0  0
   11.7849   -0.9287    1.1632 H   0  0  0  0  0  0
   15.5751   -2.2853    2.7632 H   0  0  0  0  0  0
   16.2480   -2.9942    0.5950 H   0  0  0  0  0  0
   15.7309   -3.3287   -3.5931 H   0  0  0  0  0  0
   16.4509   -1.5800   -5.0957 H   0  0  0  0  0  0
   16.3372    0.7754   -4.4539 H   0  0  0  0  0  0
   14.2172    2.0141   -4.0514 H   0  0  0  0  0  0
   13.5957    4.3646   -3.7054 H   0  0  0  0  0  0
   14.2281    5.5137   -1.6073 H   0  0  0  0  0  0
   16.3174    1.9854   -0.3074 H   0  0  0  0  0  0
   14.8179   -0.3320   -0.6043 H   0  0  0  0  0  0
   14.5188   -5.1208   -0.2534 H   0  0  0  0  0  0
   14.0919   -6.3714   -2.2508 H   0  0  0  0  0  0
   14.3782   -4.9091   -3.3085 H   0  0  0  0  0  0
   16.7585   -4.7318   -2.3324 H   0  0  0  0  0  0
   16.4098   -6.1918   -1.2875 H   0  0  0  0  0  0
   13.8100   -2.0673    3.0432 H   0  0  0  0  0  0
  1  2  1  0  0  0
  1 25  1  0  0  0
  1 26  1  0  0  0
  1 27  1  0  0  0
  2  3  1  0  0  0
  2 23  1  0  0  0
  3  4  1  0  0  0
  3  5  2  0  0  0
  4 28  1  0  0  0
  4 43  1  0  0  0
  5  6  1  0  0  0
  5 29  1  0  0  0
  6  7  1  0  0  0
  6 20  1  0  0  0
  6 23  1  0  0  0
  7  8  2  0  0  0
  7 19  1  0  0  0
  8  9  1  0  0  0
  8 30  1  0  0  0
  9 10  2  0  0  0
  9 31  1  0  0  0
 10 11  1  0  0  0
 10 32  1  0  0  0
 11 12  1  0  0  0
 11 19  2  0  0  0
 12 13  2  0  0  0
 12 18  1  0  0  0
 13 14  1  0  0  0
 13 33  1  0  0  0
 14 15  2  0  0  0
 14 34  1  0  0  0
 15 16  1  0  0  0
 15 35  1  0  0  0
 16 18  2  0  0  0
 16 17  1  0  0  0
 18 36  1  0  0  0
 19 37  1  0  0  0
 20 21  1  0  0  0
 20 22  1  0  0  0
 20 38  1  0  0  0
 21 22  1  0  0  0
 21 39  1  0  0  0
 21 40  1  0  0  0
 22 41  1  0  0  0
 22 42  1  0  0  0
 23 24  2  0  0  0
M  CHG  1   5   1
M  END
> <s_m_entry_id>
1401

> <s_m_entry_name>
Bace_CAT-13d.1

> <s_m_Source_Path>
C:\Users\yujiethinkpad\Desktop\05A\BACE

> <s_m_Source_File>
Bace_CAT-13d.sdf

> <i_m_Source_File_Index>
1

> <s_i_glide_gridfile>
glide-grid_Bace

> <r_i_docking_score>
-6.57645418071489

> <r_i_glide_ecoul>
-13.7446298599243

> <r_i_glide_einternal>
2.0058867931366

> <r_i_glide_emodel>
-39.1103666617657

> <r_i_glide_energy>
-34.8684396743774

> <r_i_glide_erotb>
0.489200178349874

> <r_i_glide_esite>
-0.189901216061975

> <r_i_glide_evdw>
-21.1238098144531

> <r_i_glide_gscore>
-6.57645418071489

> <r_i_glide_hbond>
-0.288673402167441

> <r_i_glide_ligand_efficiency>
-0.274018924196454

> <r_i_glide_ligand_efficiency_ln>
-1.57404725926358

> <r_i_glide_ligand_efficiency_sa>
-0.790407350519549

> <r_i_glide_lipo>
-2.12753027571562

> <r_i_glide_metal>
0

> <r_i_glide_rewards>
-1.34166449540843

> <i_i_glide_confnum>
1

> <i_i_glide_lignum>
23

> <i_i_glide_posenum>
276

> <i_i_glide_rotatable_bonds>
3

> <r_i_glide_eff_state_penalty>
0

> <s_m_job_name>
glide-dock_SP_bace_other

> <r_user_dG.exp>
-10.473

> <r_m_Molecular_weight>
340.83578

> <r_glide_shape_similarity>
0.862192213535309

> <s_m_subgroup_title>
glide-dock_SP_bace_other_lib1

> <s_m_subgroupid>
glide-dock_SP_bace_other_lib1

> <b_m_subgroup_collapsed>
0

$$$$
