CAT-13n
                    3D
 Schrodinger Suite 2021-2.
 44 47  0  0  1  0            999 V2000
   11.8081   -2.0338    1.2983 C   0  0  0  0  0  0
   13.0642   -2.4563    0.6517 N   0  0  0  0  0  0
   14.2953   -2.5203    1.1874 C   0  0  0  0  0  0
   14.5850   -2.2400    2.4376 N   0  0  0  0  0  0
   15.2522   -2.8717    0.3328 N   0  3  0  0  0  0
   14.6833   -3.0657   -1.0008 C   0  0  1  0  0  0
   15.2225   -1.9718   -1.9559 C   0  0  0  0  0  0
   15.6884   -2.3182   -3.2489 C   0  0  0  0  0  0
   16.1121   -1.3196   -4.1490 C   0  0  0  0  0  0
   16.0584    0.0370   -3.7755 C   0  0  0  0  0  0
   15.5803    0.4288   -2.5018 C   0  0  0  0  0  0
   15.3497    1.8714   -2.2466 C   0  0  0  0  0  0
   14.5622    2.5973   -3.1806 C   0  0  0  0  0  0
   14.1938    3.9427   -2.9513 C   0  0  0  0  0  0
   14.5850    4.5781   -1.7595 C   0  0  0  0  0  0
   15.3257    3.8564   -0.8011 C   0  0  0  0  0  0
   15.4384    4.5151    0.7960 Cl  0  0  0  0  0  0
   15.7864    2.5422   -1.0795 C   0  0  0  0  0  0
   15.1985   -0.5877   -1.5829 C   0  0  0  0  0  0
   14.9130   -4.5566   -1.4031 C   0  0  0  0  0  0
   16.1803   -5.0032   -1.3166 N   0  0  0  0  0  0
   16.4086   -6.3182   -1.5439 C   0  0  0  0  0  0
   15.3615   -7.2023   -1.8786 C   0  0  0  0  0  0
   14.0710   -6.6449   -1.9551 C   0  0  0  0  0  0
   13.8548   -5.3310   -1.7130 N   0  0  0  0  0  0
   13.1868   -2.7466   -0.7354 C   0  0  0  0  0  0
   12.2578   -2.6850   -1.5462 O   0  0  0  0  0  0
   11.7015   -0.9582    1.1643 H   0  0  0  0  0  0
   10.9481   -2.5163    0.8310 H   0  0  0  0  0  0
   11.7927   -2.2859    2.3601 H   0  0  0  0  0  0
   15.5924   -2.2854    2.7631 H   0  0  0  0  0  0
   16.2342   -3.0714    0.5753 H   0  0  0  0  0  0
   15.7130   -3.3463   -3.5779 H   0  0  0  0  0  0
   16.4503   -1.5859   -5.1428 H   0  0  0  0  0  0
   16.3487    0.7867   -4.4982 H   0  0  0  0  0  0
   14.2103    2.1106   -4.0789 H   0  0  0  0  0  0
   13.5906    4.4716   -3.6746 H   0  0  0  0  0  0
   14.2415    5.5797   -1.5438 H   0  0  0  0  0  0
   16.3195    1.9927   -0.3200 H   0  0  0  0  0  0
   14.8139   -0.2915   -0.6177 H   0  0  0  0  0  0
   17.4271   -6.6643   -1.4524 H   0  0  0  0  0  0
   15.5345   -8.2548   -2.0419 H   0  0  0  0  0  0
   13.2116   -7.2528   -2.1904 H   0  0  0  0  0  0
   13.8212   -2.0990    3.0982 H   0  0  0  0  0  0
  1  2  1  0  0  0
  1 28  1  0  0  0
  1 29  1  0  0  0
  1 30  1  0  0  0
  2  3  1  0  0  0
  2 26  1  0  0  0
  3  4  1  0  0  0
  3  5  2  0  0  0
  4 31  1  0  0  0
  4 44  1  0  0  0
  5  6  1  0  0  0
  5 32  1  0  0  0
  6  7  1  0  0  0
  6 20  1  0  0  0
  6 26  1  0  0  0
  7  8  2  0  0  0
  7 19  1  0  0  0
  8  9  1  0  0  0
  8 33  1  0  0  0
  9 10  2  0  0  0
  9 34  1  0  0  0
 10 11  1  0  0  0
 10 35  1  0  0  0
 11 12  1  0  0  0
 11 19  2  0  0  0
 12 13  2  0  0  0
 12 18  1  0  0  0
 13 14  1  0  0  0
 13 36  1  0  0  0
 14 15  2  0  0  0
 14 37  1  0  0  0
 15 16  1  0  0  0
 15 38  1  0  0  0
 16 17  1  0  0  0
 16 18  2  0  0  0
 18 39  1  0  0  0
 19 40  1  0  0  0
 20 21  2  0  0  0
 20 25  1  0  0  0
 21 22  1  0  0  0
 22 23  2  0  0  0
 22 41  1  0  0  0
 23 24  1  0  0  0
 23 42  1  0  0  0
 24 25  2  0  0  0
 24 43  1  0  0  0
 26 27  2  0  0  0
M  CHG  1   5   1
M  END
> <s_m_entry_id>
1388

> <s_m_entry_name>
Bace_CAT-13n.1

> <s_m_Source_Path>
C:\Users\yujiethinkpad\Desktop\05A\BACE

> <s_m_Source_File>
Bace_CAT-13n.sdf

> <i_m_Source_File_Index>
1

> <s_i_glide_gridfile>
glide-grid_Bace

> <r_i_docking_score>
-6.80586284646936

> <r_i_glide_ecoul>
-13.4623365402222

> <r_i_glide_einternal>
1.26963222026825

> <r_i_glide_emodel>
-52.6754252926798

> <r_i_glide_energy>
-39.063099861145

> <r_i_glide_erotb>
0.405183935388994

> <r_i_glide_esite>
-0.189717465011448

> <r_i_glide_evdw>
-25.6007633209229

> <r_i_glide_gscore>
-6.80586284646936

> <r_i_glide_hbond>
-0.280952669843354

> <r_i_glide_ligand_efficiency>
-0.25206899431368

> <r_i_glide_ligand_efficiency_ln>
-1.58429266723987

> <r_i_glide_ligand_efficiency_sa>
-0.756206982110261

> <r_i_glide_lipo>
-2.34289429993071

> <r_i_glide_metal>
0

> <r_i_glide_rewards>
-1.09809369999337

> <i_i_glide_confnum>
20

> <i_i_glide_lignum>
32

> <i_i_glide_posenum>
290

> <i_i_glide_rotatable_bonds>
3

> <r_i_glide_eff_state_penalty>
0

> <s_m_job_name>
glide-dock_SP_bace_other

> <r_user_dG.exp>
-8.543

> <r_m_Molecular_weight>
378.84439

> <r_glide_shape_similarity>
0.941811859607697

> <s_m_subgroup_title>
glide-dock_SP_bace_other_lib1

> <s_m_subgroupid>
glide-dock_SP_bace_other_lib1

> <b_m_subgroup_collapsed>
0

$$$$
