CAT-4n
                    3D
 Schrodinger Suite 2021-2.
 46 49  0  0  1  0            999 V2000
   11.5458   -2.2040    1.2170 C   0  0  0  0  0  0
   12.8763   -2.5003    0.6549 N   0  0  0  0  0  0
   14.0425   -2.6637    1.2996 C   0  0  0  0  0  0
   14.1858   -2.6845    2.6213 N   0  0  0  0  0  0
   15.0791   -2.8378    0.4697 N   0  3  0  0  0  0
   14.6218   -2.9927   -0.9175 C   0  0  2  0  0  0
   14.8621   -4.4767   -1.3159 C   0  0  0  0  0  0
   13.8112   -5.3587   -1.7007 C   0  0  0  0  0  0
   14.0687   -6.7193   -1.9598 C   0  0  0  0  0  0
   15.3825   -7.2191   -1.8846 C   0  0  0  0  0  0
   16.4434   -6.3556   -1.5475 C   0  0  0  0  0  0
   16.1820   -5.0003   -1.2616 C   0  0  0  0  0  0
   15.2053   -1.9396   -1.8921 C   0  0  0  0  0  0
   15.6827   -2.3268   -3.1727 C   0  0  0  0  0  0
   16.1298   -1.3671   -4.1011 C   0  0  0  0  0  0
   16.0530    0.0015   -3.7899 C   0  0  0  0  0  0
   15.5504    0.4246   -2.5396 C   0  0  0  0  0  0
   15.3193    1.8624   -2.3260 C   0  0  0  0  0  0
   14.5105    2.6176   -3.2075 C   0  0  0  0  0  0
   14.1822    3.9209   -3.0310 N   0  0  0  0  0  0
   14.5886    4.5221   -1.8944 C   0  0  0  0  0  0
   15.3405    3.8385   -0.9182 C   0  0  0  0  0  0
   15.3853    4.3295    0.4467 C   0  0  0  0  0  0
   15.3863    4.6789    1.5514 N   0  0  0  0  0  0
   15.7912    2.5287   -1.1914 C   0  0  0  0  0  0
   15.1767   -0.5509   -1.5734 C   0  0  0  0  0  0
   13.1174   -2.6668   -0.7370 C   0  0  0  0  0  0
   12.2514   -2.5614   -1.6093 O   0  0  0  0  0  0
   11.5410   -2.2561    2.3053 H   0  0  0  0  0  0
   11.2341   -1.2074    0.8899 H   0  0  0  0  0  0
   10.8096   -2.9216    0.8478 H   0  0  0  0  0  0
   15.1653   -2.7013    2.9538 H   0  0  0  0  0  0
   16.0402   -3.0293    0.7684 H   0  0  0  0  0  0
   12.7846   -5.0428   -1.7561 H   0  0  0  0  0  0
   13.2599   -7.3860   -2.2159 H   0  0  0  0  0  0
   15.5701   -8.2664   -2.0681 H   0  0  0  0  0  0
   17.4548   -6.7294   -1.4974 H   0  0  0  0  0  0
   17.0031   -4.3542   -0.9817 H   0  0  0  0  0  0
   15.7061   -3.3643   -3.4708 H   0  0  0  0  0  0
   16.5034   -1.6779   -5.0648 H   0  0  0  0  0  0
   16.3513    0.7274   -4.5351 H   0  0  0  0  0  0
   14.1054    2.1587   -4.0976 H   0  0  0  0  0  0
   14.1999    5.5140   -1.7138 H   0  0  0  0  0  0
   16.3240    1.9723   -0.4343 H   0  0  0  0  0  0
   14.7829   -0.2227   -0.6220 H   0  0  0  0  0  0
   13.4169   -2.4444    3.2540 H   0  0  0  0  0  0
  1  2  1  0  0  0
  1 29  1  0  0  0
  1 30  1  0  0  0
  1 31  1  0  0  0
  2  3  1  0  0  0
  2 27  1  0  0  0
  3  4  1  0  0  0
  3  5  2  0  0  0
  4 32  1  0  0  0
  4 46  1  0  0  0
  5  6  1  0  0  0
  5 33  1  0  0  0
  6  7  1  0  0  0
  6 13  1  0  0  0
  6 27  1  0  0  0
  7  8  2  0  0  0
  7 12  1  0  0  0
  8  9  1  0  0  0
  8 34  1  0  0  0
  9 10  2  0  0  0
  9 35  1  0  0  0
 10 11  1  0  0  0
 10 36  1  0  0  0
 11 12  2  0  0  0
 11 37  1  0  0  0
 12 38  1  0  0  0
 13 14  2  0  0  0
 13 26  1  0  0  0
 14 15  1  0  0  0
 14 39  1  0  0  0
 15 16  2  0  0  0
 15 40  1  0  0  0
 16 17  1  0  0  0
 16 41  1  0  0  0
 17 18  1  0  0  0
 17 26  2  0  0  0
 18 19  2  0  0  0
 18 25  1  0  0  0
 19 20  1  0  0  0
 19 42  1  0  0  0
 20 21  2  0  0  0
 21 22  1  0  0  0
 21 43  1  0  0  0
 22 23  1  0  0  0
 22 25  2  0  0  0
 23 24  3  0  0  0
 25 44  1  0  0  0
 26 45  1  0  0  0
 27 28  2  0  0  0
M  CHG  1   5   1
M  END
> <s_m_entry_id>
1394

> <s_m_entry_name>
Bace_CAT-4n.1

> <s_m_Source_Path>
C:\Users\yujiethinkpad\Desktop\05A\BACE

> <s_m_Source_File>
Bace_CAT-4n.sdf

> <i_m_Source_File_Index>
1

> <s_i_glide_gridfile>
glide-grid_Bace

> <r_i_docking_score>
-6.70437991426668

> <r_i_glide_ecoul>
-10.2229890823364

> <r_i_glide_einternal>
2.05238842964172

> <r_i_glide_emodel>
-49.2002252992589

> <r_i_glide_energy>
-38.9815187454224

> <r_i_glide_erotb>
0.425919183814819

> <r_i_glide_esite>
-0.126862751900397

> <r_i_glide_evdw>
-28.7585296630859

> <r_i_glide_gscore>
-6.70437991426668

> <r_i_glide_hbond>
-0.4

> <r_i_glide_ligand_efficiency>
-0.239442139795239

> <r_i_glide_ligand_efficiency_ln>
-1.54756773336066

> <r_i_glide_ligand_efficiency_sa>
-0.727087360296931

> <r_i_glide_lipo>
-2.10008032055387

> <r_i_glide_metal>
0

> <r_i_glide_rewards>
-1.53198118012248

> <i_i_glide_confnum>
14

> <i_i_glide_lignum>
17

> <i_i_glide_posenum>
158

> <i_i_glide_rotatable_bonds>
3

> <r_i_glide_eff_state_penalty>
0

> <s_m_job_name>
glide-dock_SP_bace_other

> <r_user_dG.exp>
-9.093

> <r_m_Molecular_weight>
368.42166

> <r_glide_shape_similarity>
0.913087069988251

> <s_m_subgroup_title>
glide-dock_SP_bace_other_lib1

> <s_m_subgroupid>
glide-dock_SP_bace_other_lib1

> <b_m_subgroup_collapsed>
0

$$$$
