CAT-4m
                    3D
 Schrodinger Suite 2021-2.
 48 51  0  0  1  0            999 V2000
   15.7182    4.3636    0.7650 C   0  0  0  0  0  0
   15.5248    3.8181   -0.6400 C   0  0  0  0  0  0
   14.7991    4.5635   -1.5943 C   0  0  0  0  0  0
   14.3648    4.0321   -2.7557 N   0  0  0  0  0  0
   14.6288    2.7244   -2.9888 C   0  0  0  0  0  0
   15.3989    1.8920   -2.1366 C   0  0  0  0  0  0
   15.5621    0.4526   -2.4519 C   0  0  0  0  0  0
   16.0197    0.0582   -3.7313 C   0  0  0  0  0  0
   16.0765   -1.3034   -4.0882 C   0  0  0  0  0  0
   15.6559   -2.2937   -3.1778 C   0  0  0  0  0  0
   15.1911   -1.9347   -1.8864 C   0  0  0  0  0  0
   14.6117   -2.9974   -0.9232 C   0  0  1  0  0  0
   14.8570   -4.4784   -1.3245 C   0  0  0  0  0  0
   13.8048   -5.3608   -1.7029 C   0  0  0  0  0  0
   14.0648   -6.7189   -1.9746 C   0  0  0  0  0  0
   15.3775   -7.2206   -1.8847 C   0  0  0  0  0  0
   16.4375   -6.3583   -1.5420 C   0  0  0  0  0  0
   16.1782   -4.9993   -1.2658 C   0  0  0  0  0  0
   15.0766   -2.8434    0.4615 N   0  3  0  0  0  0
   14.0425   -2.6656    1.2924 C   0  0  0  0  0  0
   14.1873   -2.6854    2.6115 N   0  0  0  0  0  0
   12.8718   -2.5009    0.6583 N   0  0  0  0  0  0
   11.5583   -2.1891    1.2537 C   0  0  0  0  0  0
   13.1055   -2.6712   -0.7355 C   0  0  0  0  0  0
   12.2344   -2.5661   -1.6039 O   0  0  0  0  0  0
   15.1745   -0.5562   -1.5332 C   0  0  0  0  0  0
   15.8986    2.4904   -0.9574 C   0  0  0  0  0  0
   15.7847    5.4475    0.7602 H   0  0  0  0  0  0
   16.5846    3.9271    1.2545 H   0  0  0  0  0  0
   14.8453    4.1157    1.3682 H   0  0  0  0  0  0
   14.4883    5.5774   -1.3866 H   0  0  0  0  0  0
   14.2090    2.3251   -3.9004 H   0  0  0  0  0  0
   16.3169    0.8029   -4.4565 H   0  0  0  0  0  0
   16.4210   -1.5841   -5.0730 H   0  0  0  0  0  0
   15.6724   -3.3239   -3.5011 H   0  0  0  0  0  0
   12.7794   -5.0361   -1.7875 H   0  0  0  0  0  0
   13.2581   -7.3819   -2.2495 H   0  0  0  0  0  0
   15.5687   -8.2659   -2.0745 H   0  0  0  0  0  0
   17.4457   -6.7381   -1.4705 H   0  0  0  0  0  0
   16.9979   -4.3545   -0.9823 H   0  0  0  0  0  0
   16.0389   -3.0395    0.7577 H   0  0  0  0  0  0
   15.1664   -2.7023    2.9471 H   0  0  0  0  0  0
   11.5131   -2.4713    2.3047 H   0  0  0  0  0  0
   11.3668   -1.1212    1.1623 H   0  0  0  0  0  0
   10.7614   -2.7201    0.7323 H   0  0  0  0  0  0
   14.8002   -0.2557   -0.5647 H   0  0  0  0  0  0
   16.4276    1.8912   -0.2316 H   0  0  0  0  0  0
   13.4198   -2.4394    3.2428 H   0  0  0  0  0  0
  1  2  1  0  0  0
  1 28  1  0  0  0
  1 29  1  0  0  0
  1 30  1  0  0  0
  2  3  2  0  0  0
  2 27  1  0  0  0
  3  4  1  0  0  0
  3 31  1  0  0  0
  4  5  2  0  0  0
  5  6  1  0  0  0
  5 32  1  0  0  0
  6  7  1  0  0  0
  6 27  2  0  0  0
  7  8  2  0  0  0
  7 26  1  0  0  0
  8  9  1  0  0  0
  8 33  1  0  0  0
  9 10  2  0  0  0
  9 34  1  0  0  0
 10 11  1  0  0  0
 10 35  1  0  0  0
 11 12  1  0  0  0
 11 26  2  0  0  0
 12 13  1  0  0  0
 12 19  1  0  0  0
 12 24  1  0  0  0
 13 14  2  0  0  0
 13 18  1  0  0  0
 14 15  1  0  0  0
 14 36  1  0  0  0
 15 16  2  0  0  0
 15 37  1  0  0  0
 16 17  1  0  0  0
 16 38  1  0  0  0
 17 18  2  0  0  0
 17 39  1  0  0  0
 18 40  1  0  0  0
 19 20  2  0  0  0
 19 41  1  0  0  0
 20 21  1  0  0  0
 20 22  1  0  0  0
 21 42  1  0  0  0
 21 48  1  0  0  0
 22 23  1  0  0  0
 22 24  1  0  0  0
 23 43  1  0  0  0
 23 44  1  0  0  0
 23 45  1  0  0  0
 24 25  2  0  0  0
 26 46  1  0  0  0
 27 47  1  0  0  0
M  CHG  1  19   1
M  END
> <s_m_entry_id>
1413

> <s_m_entry_name>
Bace_CAT-4m.1

> <s_m_Source_Path>
C:\Users\yujiethinkpad\Desktop\05A\BACE

> <s_m_Source_File>
Bace_CAT-4m.sdf

> <i_m_Source_File_Index>
1

> <s_i_glide_gridfile>
glide-grid_Bace

> <r_i_docking_score>
-6.37498859692966

> <r_i_glide_ecoul>
-8.7708625793457

> <r_i_glide_einternal>
2.27293419837952

> <r_i_glide_emodel>
-46.5752856779671

> <r_i_glide_energy>
-34.6931953430176

> <r_i_glide_erotb>
0.449547189734862

> <r_i_glide_esite>
-0.126301876862847

> <r_i_glide_evdw>
-25.9223327636719

> <r_i_glide_gscore>
-6.37498859692966

> <r_i_glide_hbond>
-0.4

> <r_i_glide_ligand_efficiency>
-0.236110688775173

> <r_i_glide_ligand_efficiency_ln>
-1.4839922454642

> <r_i_glide_ligand_efficiency_sa>
-0.708332065547336

> <r_i_glide_lipo>
-2.41378340485044

> <r_i_glide_metal>
0

> <r_i_glide_rewards>
-1.27270447986579

> <i_i_glide_confnum>
14

> <i_i_glide_lignum>
16

> <i_i_glide_posenum>
186

> <i_i_glide_rotatable_bonds>
3

> <r_i_glide_eff_state_penalty>
0

> <s_m_job_name>
glide-dock_SP_bace_other

> <r_user_dG.exp>
-9.153

> <r_m_Molecular_weight>
357.43887

> <r_glide_shape_similarity>
0.950297653675079

> <s_m_subgroup_title>
glide-dock_SP_bace_other_lib1

> <s_m_subgroupid>
glide-dock_SP_bace_other_lib1

> <b_m_subgroup_collapsed>
0

$$$$
