CAT-4b
                    3D
 Schrodinger Suite 2021-2.
 50 53  0  0  1  0            999 V2000
   14.9848    5.3128    0.8325 C   0  0  0  0  0  0
   15.7849    4.2699    0.2956 O   0  0  0  0  0  0
   15.4191    3.7953   -0.9449 C   0  0  0  0  0  0
   14.6358    4.5202   -1.8853 C   0  0  0  0  0  0
   14.1594    3.8772   -3.0423 C   0  0  0  0  0  0
   14.4706    2.5201   -3.2679 C   0  0  0  0  0  0
   15.2947    1.8078   -2.3681 C   0  0  0  0  0  0
   15.5502    0.3821   -2.5769 C   0  0  0  0  0  0
   16.0568   -0.0429   -3.8243 C   0  0  0  0  0  0
   16.1299   -1.4122   -4.1270 C   0  0  0  0  0  0
   15.6884   -2.3628   -3.1858 C   0  0  0  0  0  0
   15.2100   -1.9641   -1.9077 C   0  0  0  0  0  0
   14.6180   -2.9997   -0.9253 C   0  0  1  0  0  0
   14.8585   -4.4821   -1.3170 C   0  0  0  0  0  0
   13.8057   -5.3617   -1.6982 C   0  0  0  0  0  0
   14.0650   -6.7187   -1.9711 C   0  0  0  0  0  0
   15.3777   -7.2206   -1.8827 C   0  0  0  0  0  0
   16.4383   -6.3598   -1.5382 C   0  0  0  0  0  0
   16.1792   -5.0024   -1.2585 C   0  0  0  0  0  0
   15.0807   -2.8335    0.4578 N   0  3  0  0  0  0
   14.0443   -2.6661    1.2884 C   0  0  0  0  0  0
   14.1857   -2.6866    2.6082 N   0  0  0  0  0  0
   12.8736   -2.5134    0.6527 N   0  0  0  0  0  0
   11.5515   -2.2436    1.2489 C   0  0  0  0  0  0
   13.1125   -2.6704   -0.7414 C   0  0  0  0  0  0
   12.2436   -2.5633   -1.6115 O   0  0  0  0  0  0
   15.1815   -0.5768   -1.5997 C   0  0  0  0  0  0
   15.7853    2.4683   -1.2365 C   0  0  0  0  0  0
   15.3738    5.6551    1.7907 H   0  0  0  0  0  0
   14.9868    6.1407    0.1361 H   0  0  0  0  0  0
   13.9595    4.9729    0.9859 H   0  0  0  0  0  0
   14.3420    5.5466   -1.7327 H   0  0  0  0  0  0
   13.5363    4.4140   -3.7426 H   0  0  0  0  0  0
   14.0723    2.0252   -4.1417 H   0  0  0  0  0  0
   16.3459    0.6811   -4.5730 H   0  0  0  0  0  0
   16.4894   -1.7301   -5.0948 H   0  0  0  0  0  0
   15.7087   -3.4021   -3.4782 H   0  0  0  0  0  0
   12.7803   -5.0375   -1.7805 H   0  0  0  0  0  0
   13.2562   -7.3813   -2.2378 H   0  0  0  0  0  0
   15.5688   -8.2661   -2.0704 H   0  0  0  0  0  0
   17.4465   -6.7400   -1.4629 H   0  0  0  0  0  0
   16.9988   -4.3575   -0.9731 H   0  0  0  0  0  0
   16.0447   -3.0159    0.7548 H   0  0  0  0  0  0
   15.1618   -2.7259    2.9483 H   0  0  0  0  0  0
   11.5178   -2.5220    2.3012 H   0  0  0  0  0  0
   11.3191   -1.1857    1.1533 H   0  0  0  0  0  0
   10.7737   -2.8059    0.7312 H   0  0  0  0  0  0
   14.7819   -0.2363   -0.6545 H   0  0  0  0  0  0
   16.3295    1.9080   -0.4952 H   0  0  0  0  0  0
   13.4174   -2.4404    3.2383 H   0  0  0  0  0  0
  1  2  1  0  0  0
  1 29  1  0  0  0
  1 30  1  0  0  0
  1 31  1  0  0  0
  2  3  1  0  0  0
  3  4  2  0  0  0
  3 28  1  0  0  0
  4  5  1  0  0  0
  4 32  1  0  0  0
  5  6  2  0  0  0
  5 33  1  0  0  0
  6  7  1  0  0  0
  6 34  1  0  0  0
  7  8  1  0  0  0
  7 28  2  0  0  0
  8  9  2  0  0  0
  8 27  1  0  0  0
  9 10  1  0  0  0
  9 35  1  0  0  0
 10 11  2  0  0  0
 10 36  1  0  0  0
 11 12  1  0  0  0
 11 37  1  0  0  0
 12 13  1  0  0  0
 12 27  2  0  0  0
 13 14  1  0  0  0
 13 20  1  0  0  0
 13 25  1  0  0  0
 14 15  2  0  0  0
 14 19  1  0  0  0
 15 16  1  0  0  0
 15 38  1  0  0  0
 16 17  2  0  0  0
 16 39  1  0  0  0
 17 18  1  0  0  0
 17 40  1  0  0  0
 18 19  2  0  0  0
 18 41  1  0  0  0
 19 42  1  0  0  0
 20 21  2  0  0  0
 20 43  1  0  0  0
 21 22  1  0  0  0
 21 23  1  0  0  0
 22 44  1  0  0  0
 22 50  1  0  0  0
 23 24  1  0  0  0
 23 25  1  0  0  0
 24 45  1  0  0  0
 24 46  1  0  0  0
 24 47  1  0  0  0
 25 26  2  0  0  0
 27 48  1  0  0  0
 28 49  1  0  0  0
M  CHG  1  20   1
M  END
> <s_m_entry_id>
1393

> <s_m_entry_name>
Bace_CAT-4b.1

> <s_m_Source_Path>
C:\Users\yujiethinkpad\Desktop\05A\BACE

> <s_m_Source_File>
Bace_CAT-4b.sdf

> <i_m_Source_File_Index>
1

> <s_i_glide_gridfile>
glide-grid_Bace

> <r_i_docking_score>
-6.70811560976763

> <r_i_glide_ecoul>
-9.17631149291992

> <r_i_glide_einternal>
8.11917114257813

> <r_i_glide_emodel>
-46.3088135324923

> <r_i_glide_energy>
-40.088399887085

> <r_i_glide_erotb>
0.417719767472812

> <r_i_glide_esite>
-0.126170985773917

> <r_i_glide_evdw>
-30.912088394165

> <r_i_glide_gscore>
-6.70811560976763

> <r_i_glide_hbond>
-0.4

> <r_i_glide_ligand_efficiency>
-0.239575557491701

> <r_i_glide_ligand_efficiency_ln>
-1.54843004156707

> <r_i_glide_ligand_efficiency_sa>
-0.727492495002212

> <r_i_glide_lipo>
-2.54500709476795

> <r_i_glide_metal>
0

> <r_i_glide_rewards>
-1.13260615305234

> <i_i_glide_confnum>
19

> <i_i_glide_lignum>
10

> <i_i_glide_posenum>
52

> <i_i_glide_rotatable_bonds>
4

> <r_i_glide_eff_state_penalty>
0

> <s_m_job_name>
glide-dock_SP_bace_other

> <r_user_dG.exp>
-9.633

> <r_m_Molecular_weight>
372.45069

> <r_glide_shape_similarity>
0.913117110729218

> <s_m_subgroup_title>
glide-dock_SP_bace_other_lib1

> <s_m_subgroupid>
glide-dock_SP_bace_other_lib1

> <b_m_subgroup_collapsed>
0

$$$$
