CAT-17a
                    3D
 Schrodinger Suite 2021-2.
 43 46  0  0  1  0            999 V2000
   11.9088   -2.2079    1.1466 C   0  0  0  0  0  0
   13.1813   -2.5863    0.5283 N   0  0  0  0  0  0
   14.3783   -2.6169    1.1082 C   0  0  0  0  0  0
   14.5842   -2.3852    2.3802 N   0  0  0  0  0  0
   15.3746   -2.9183    0.2933 N   0  3  0  0  0  0
   14.8550   -3.1202   -1.0396 C   0  0  1  0  0  0
   15.2887   -1.9805   -1.9570 C   0  0  0  0  0  0
   15.7126   -2.2841   -3.2580 C   0  0  0  0  0  0
   16.0962   -1.2715   -4.1328 C   0  0  0  0  0  0
   16.0282    0.0609   -3.7328 C   0  0  0  0  0  0
   15.5742    0.4151   -2.4560 C   0  0  0  0  0  0
   15.3548    1.8387   -2.1921 C   0  0  0  0  0  0
   14.5611    2.5357   -3.1138 C   0  0  0  0  0  0
   14.1852    3.8644   -2.8996 C   0  0  0  0  0  0
   13.1127    4.6442   -3.9981 Cl  0  0  0  0  0  0
   14.6009    4.5268   -1.7500 C   0  0  0  0  0  0
   15.3296    3.8250   -0.7927 C   0  0  0  0  0  0
   15.3857    4.5160    0.7759 Cl  0  0  0  0  0  0
   15.7847    2.5156   -1.0406 C   0  0  0  0  0  0
   15.2255   -0.6168   -1.5600 C   0  0  0  0  0  0
   15.3180   -4.5188   -1.4831 C   0  0  0  0  0  0
   14.7851   -5.7980   -0.8835 C   0  0  0  0  0  0
   14.4983   -5.4826   -2.3177 C   0  0  0  0  0  0
   13.3567   -2.9415   -0.8207 C   0  0  0  0  0  0
   12.4528   -3.0161   -1.6461 O   0  0  0  0  0  0
   11.0603   -2.5992    0.5827 H   0  0  0  0  0  0
   11.8377   -2.5931    2.1638 H   0  0  0  0  0  0
   11.8264   -1.1207    1.1655 H   0  0  0  0  0  0
   15.5667   -2.3804    2.7637 H   0  0  0  0  0  0
   16.3423   -3.0702    0.5914 H   0  0  0  0  0  0
   15.7528   -3.2975   -3.6250 H   0  0  0  0  0  0
   16.4271   -1.5123   -5.1325 H   0  0  0  0  0  0
   16.3022    0.8271   -4.4449 H   0  0  0  0  0  0
   14.1782    2.0264   -3.9872 H   0  0  0  0  0  0
   14.2437    5.5267   -1.5464 H   0  0  0  0  0  0
   16.2814    1.9687   -0.2558 H   0  0  0  0  0  0
   14.8605   -0.3499   -0.5786 H   0  0  0  0  0  0
   16.3900   -4.5449   -1.6791 H   0  0  0  0  0  0
   15.5051   -6.5870   -0.6757 H   0  0  0  0  0  0
   13.9603   -5.7290   -0.1786 H   0  0  0  0  0  0
   13.4754   -5.2217   -2.5787 H   0  0  0  0  0  0
   15.0293   -6.0555   -3.0758 H   0  0  0  0  0  0
   13.7921   -2.2572    2.9950 H   0  0  0  0  0  0
  1  2  1  0  0  0
  1 26  1  0  0  0
  1 27  1  0  0  0
  1 28  1  0  0  0
  2  3  1  0  0  0
  2 24  1  0  0  0
  3  4  1  0  0  0
  3  5  2  0  0  0
  4 29  1  0  0  0
  4 43  1  0  0  0
  5  6  1  0  0  0
  5 30  1  0  0  0
  6  7  1  0  0  0
  6 21  1  0  0  0
  6 24  1  0  0  0
  7  8  2  0  0  0
  7 20  1  0  0  0
  8  9  1  0  0  0
  8 31  1  0  0  0
  9 10  2  0  0  0
  9 32  1  0  0  0
 10 11  1  0  0  0
 10 33  1  0  0  0
 11 12  1  0  0  0
 11 20  2  0  0  0
 12 13  2  0  0  0
 12 19  1  0  0  0
 13 14  1  0  0  0
 13 34  1  0  0  0
 14 15  1  0  0  0
 14 16  2  0  0  0
 16 17  1  0  0  0
 16 35  1  0  0  0
 17 18  1  0  0  0
 17 19  2  0  0  0
 19 36  1  0  0  0
 20 37  1  0  0  0
 21 22  1  0  0  0
 21 23  1  0  0  0
 21 38  1  0  0  0
 22 23  1  0  0  0
 22 39  1  0  0  0
 22 40  1  0  0  0
 23 41  1  0  0  0
 23 42  1  0  0  0
 24 25  2  0  0  0
M  CHG  1   5   1
M  END
> <s_m_entry_id>
1414

> <s_m_entry_name>
Bace_CAT-17a.1

> <s_m_Source_Path>
C:\Users\yujiethinkpad\Desktop\05A\BACE

> <s_m_Source_File>
Bace_CAT-17a.sdf

> <i_m_Source_File_Index>
1

> <s_i_glide_gridfile>
glide-grid_Bace

> <r_i_docking_score>
-6.33507228686378

> <r_i_glide_ecoul>
-13.405122756958

> <r_i_glide_einternal>
4.6919584274292

> <r_i_glide_emodel>
-38.9629490579772

> <r_i_glide_energy>
-36.0889892578125

> <r_i_glide_erotb>
0.412098250342712

> <r_i_glide_esite>
-0.190120305959857

> <r_i_glide_evdw>
-22.6838665008545

> <r_i_glide_gscore>
-6.33507228686378

> <r_i_glide_hbond>
-0.29342518112164

> <r_i_glide_ligand_efficiency>
-0.253402891474551

> <r_i_glide_ligand_efficiency_ln>
-1.50160197878346

> <r_i_glide_ligand_efficiency_sa>
-0.740954548791004

> <r_i_glide_lipo>
-2.12252144017777

> <r_i_glide_metal>
0

> <r_i_glide_rewards>
-0.996141871360799

> <i_i_glide_confnum>
3

> <i_i_glide_lignum>
34

> <i_i_glide_posenum>
61

> <i_i_glide_rotatable_bonds>
3

> <r_i_glide_eff_state_penalty>
0

> <s_m_job_name>
glide-dock_SP_bace_other

> <r_user_dG.exp>
-10.733

> <r_m_Molecular_weight>
375.28081

> <r_glide_shape_similarity>
0.862015664577484

> <s_m_subgroup_title>
glide-dock_SP_bace_other_lib1

> <s_m_subgroupid>
glide-dock_SP_bace_other_lib1

> <b_m_subgroup_collapsed>
0

$$$$
