CAT-13a
                    3D
 Schrodinger Suite 2021-2.
 39 41  0  0  1  0            999 V2000
   11.9110   -2.0558    1.1731 C   0  0  0  0  0  0
   13.1554   -2.5105    0.5595 N   0  0  0  0  0  0
   14.3599   -2.5504    1.1256 C   0  0  0  0  0  0
   14.5848   -2.2393    2.3767 N   0  0  0  0  0  0
   15.3379   -2.9206    0.3120 N   0  3  0  0  0  0
   14.7933   -3.0908   -1.0188 C   0  0  2  0  0  0
   15.0262   -4.5424   -1.4844 C   0  0  0  0  0  0
   15.2614   -1.9751   -1.9477 C   0  0  0  0  0  0
   15.7127   -2.2973   -3.2346 C   0  0  0  0  0  0
   16.1093   -1.2948   -4.1183 C   0  0  0  0  0  0
   16.0347    0.0448   -3.7403 C   0  0  0  0  0  0
   15.5672    0.4139   -2.4740 C   0  0  0  0  0  0
   15.3377    1.8381   -2.2281 C   0  0  0  0  0  0
   14.5571    2.5358   -3.1647 C   0  0  0  0  0  0
   14.1935    3.8728   -2.9673 C   0  0  0  0  0  0
   14.5784    4.5244   -1.7986 C   0  0  0  0  0  0
   15.3095    3.8271   -0.8376 C   0  0  0  0  0  0
   15.4044    4.5213    0.7269 Cl  0  0  0  0  0  0
   15.7748    2.5227   -1.0863 C   0  0  0  0  0  0
   15.2061   -0.6057   -1.5676 C   0  0  0  0  0  0
   13.3091   -2.8623   -0.7884 C   0  0  0  0  0  0
   12.3974   -2.9096   -1.6079 O   0  0  0  0  0  0
   11.0391   -2.3135    0.5715 H   0  0  0  0  0  0
   11.7768   -2.4830    2.1695 H   0  0  0  0  0  0
   11.9701   -0.9762    1.2379 H   0  0  0  0  0  0
   15.5669   -2.2872    2.7631 H   0  0  0  0  0  0
   16.3103   -3.0711    0.5908 H   0  0  0  0  0  0
   14.4358   -4.7858   -2.3701 H   0  0  0  0  0  0
   16.0750   -4.7229   -1.7234 H   0  0  0  0  0  0
   14.7487   -5.2566   -0.7097 H   0  0  0  0  0  0
   15.7647   -3.3170   -3.5835 H   0  0  0  0  0  0
   16.4594   -1.5506   -5.1080 H   0  0  0  0  0  0
   16.3162    0.8010   -4.4605 H   0  0  0  0  0  0
   14.2024    2.0347   -4.0534 H   0  0  0  0  0  0
   13.5896    4.3850   -3.7011 H   0  0  0  0  0  0
   14.2329    5.5292   -1.6026 H   0  0  0  0  0  0
   16.3109    1.9904   -0.3150 H   0  0  0  0  0  0
   14.8267   -0.3242   -0.5953 H   0  0  0  0  0  0
   13.7958   -2.0755    2.9876 H   0  0  0  0  0  0
  1  2  1  0  0  0
  1 23  1  0  0  0
  1 24  1  0  0  0
  1 25  1  0  0  0
  2  3  1  0  0  0
  2 21  1  0  0  0
  3  4  1  0  0  0
  3  5  2  0  0  0
  4 26  1  0  0  0
  4 39  1  0  0  0
  5  6  1  0  0  0
  5 27  1  0  0  0
  6  7  1  0  0  0
  6  8  1  0  0  0
  6 21  1  0  0  0
  7 28  1  0  0  0
  7 29  1  0  0  0
  7 30  1  0  0  0
  8  9  2  0  0  0
  8 20  1  0  0  0
  9 10  1  0  0  0
  9 31  1  0  0  0
 10 11  2  0  0  0
 10 32  1  0  0  0
 11 12  1  0  0  0
 11 33  1  0  0  0
 12 13  1  0  0  0
 12 20  2  0  0  0
 13 14  2  0  0  0
 13 19  1  0  0  0
 14 15  1  0  0  0
 14 34  1  0  0  0
 15 16  2  0  0  0
 15 35  1  0  0  0
 16 17  1  0  0  0
 16 36  1  0  0  0
 17 18  1  0  0  0
 17 19  2  0  0  0
 19 37  1  0  0  0
 20 38  1  0  0  0
 21 22  2  0  0  0
M  CHG  1   5   1
M  END
> <i_m_stars>
2

> <s_m_entry_id>
1410

> <s_m_entry_name>
Bace_CAT-13a.1

> <s_m_Source_Path>
C:\Users\yujiethinkpad\Desktop\05A\BACE

> <s_m_Source_File>
Bace_CAT-13a.sdf

> <i_m_Source_File_Index>
1

> <s_i_glide_gridfile>
glide-grid_Bace

> <r_i_docking_score>
-6.42398919306701

> <r_i_glide_ecoul>
-13.5670003890991

> <r_i_glide_einternal>
0.451345503330231

> <r_i_glide_emodel>
-28.8268056423186

> <r_i_glide_energy>
-32.5796709060669

> <r_i_glide_erotb>
0.375274545245665

> <r_i_glide_esite>
-0.189498737777433

> <r_i_glide_evdw>
-19.0126705169678

> <r_i_glide_gscore>
-6.42398919306701

> <r_i_glide_hbond>
-0.292360598338136

> <r_i_glide_ligand_efficiency>
-0.291999508775773

> <r_i_glide_ligand_efficiency_ln>
-1.57025727948474

> <r_i_glide_ligand_efficiency_sa>
-0.818194107278745

> <r_i_glide_lipo>
-1.89917693098445

> <r_i_glide_metal>
0

> <r_i_glide_rewards>
-1.43254388699941

> <i_i_glide_confnum>
4

> <i_i_glide_lignum>
20

> <i_i_glide_posenum>
196

> <i_i_glide_rotatable_bonds>
2

> <r_i_glide_eff_state_penalty>
0

> <s_m_job_name>
glide-dock_SP_bace_other

> <r_user_dG.exp>
-8.843

> <r_m_Molecular_weight>
314.79754

> <r_glide_shape_similarity>
0.790070354938507

> <s_m_subgroup_title>
glide-dock_SP_bace_other_lib1

> <s_m_subgroupid>
glide-dock_SP_bace_other_lib1

> <b_m_subgroup_collapsed>
0

$$$$
