@<TRIPOS>MOLECULE
Example 9
43   45    1
SMALL
USER_CHARGES


@<TRIPOS>ATOM
      1 N1         24.5464   41.3949    2.9263 N.pl3     1 UNK         0.0000 
      2 C2         25.7503   40.5506    3.0678 C.3       1 UNK         0.0000 
      3 C3         26.8709   41.3386    3.7371 C.3       1 UNK         0.0000 
      4 C4         27.1915   42.6963    3.0590 C.3       1 UNK         0.0000 
      5 C5         25.8970   43.4712    2.7117 C.3       1 UNK         0.0000 
      6 C6         24.8154   42.5795    2.0867 C.3       1 UNK         0.0000 
      7 C7         19.6840   40.5121    5.5351 C.ar      1 UNK         0.0000 
      8 C8         19.3973   40.8099    6.8784 C.ar      1 UNK         0.0000 
      9 C9         18.0967   40.6108    7.3636 C.ar      1 UNK         0.0000 
     10 C10        17.1071   40.1041    6.5219 C.ar      1 UNK         0.0000 
     11 C11        17.3987   39.8007    5.1957 C.ar      1 UNK         0.0000 
     12 C12        18.6780   40.0165    4.7027 C.ar      1 UNK         0.0000 
     13 C13        21.0250   40.7291    4.9494 C.ar      1 UNK         0.0000 
     14 N14        21.0676   41.7591    4.0708 N.ar      1 UNK         0.0000 
     15 C15        22.2387   42.0000    3.4418 C.ar      1 UNK         0.0000 
     16 C16        23.3752   41.2250    3.6683 C.ar      1 UNK         0.0000 
     17 N17        23.3242   40.1927    4.5641 N.ar      1 UNK         0.0000 
     18 C18        22.1526   39.9513    5.2085 C.ar      1 UNK         0.0000 
     19 Cl19       17.6773   41.0128    8.9912 Cl        1 UNK         0.0000 
     20 Cl20       20.6231   41.4655    7.9185 Cl        1 UNK         0.0000 
     21 N21        22.1265   38.8828    6.1041 N.pl3     1 UNK         0.0000 
     22 C22        28.1625   43.5343    3.8924 C.3       1 UNK         0.0000 
     23 H23        25.5587   39.6764    3.6932 H         1 UNK         0.0000 
     24 H24        26.0969   40.1748    2.1061 H         1 UNK         0.0000 
     25 H25        27.7908   40.7659    3.8607 H         1 UNK         0.0000 
     26 H26        26.5127   41.4833    4.7526 H         1 UNK         0.0000 
     27 H27        26.1111   44.3263    2.0672 H         1 UNK         0.0000 
     28 H28        25.4516   43.9274    3.5976 H         1 UNK         0.0000 
     29 H29        23.9414   43.2111    1.9643 H         1 UNK         0.0000 
     30 H30        25.0798   42.2770    1.0727 H         1 UNK         0.0000 
     31 H31        16.0992   39.9731    6.8871 H         1 UNK         0.0000 
     32 H32        18.8916   39.7797    3.6691 H         1 UNK         0.0000 
     33 H33        22.1946   42.8157    2.7405 H         1 UNK         0.0000 
     34 H34        22.9841   38.3692    6.2894 H         1 UNK         0.0000 
     35 H35        21.2832   38.6944    6.6229 H         1 UNK         0.0000 
     36 H36        16.6388   39.4078    4.5399 H         1 UNK         0.0000 
     37 H37        29.2212   43.2300    3.9016 H         1 UNK         0.0000 
     38 N38        27.6786   43.5174    5.3054 N.4       1 UNK         0.0000 
     39 H39        27.9748   44.5967    3.9512 H         1 UNK         0.0000 
     40 H40        28.3182   44.0905    5.8559 H         1 UNK         0.0000 
     41 H41        26.7558   43.9317    5.3912 H         1 UNK         0.0000 
     42 H42        27.6585   42.4680    2.0998 H         1 UNK         0.0000 
     43 H43        27.6933   42.6032    5.7389 H         1 UNK         0.0000 
@<TRIPOS>BOND
     1    1    2 1    
     2    1    6 1    
     3    1   16 1    
     4    2    3 1    
     5    2   23 1    
     6    2   24 1    
     7    3    4 1    
     8    3   25 1    
     9    3   26 1    
    10    4    5 1    
    11    4   22 1    
    12    4   42 1    
    13    5    6 1    
    14    5   27 1    
    15    5   28 1    
    16    6   29 1    
    17    6   30 1    
    18    7    8 ar   
    19    7   12 ar   
    20    7   13 1    
    21    8    9 ar   
    22    8   20 1    
    23    9   10 ar   
    24    9   19 1    
    25   10   11 ar   
    26   10   31 1    
    27   11   12 ar   
    28   11   36 1    
    29   12   32 1    
    30   13   14 ar   
    31   13   18 ar   
    32   14   15 ar   
    33   15   16 ar   
    34   15   33 1    
    35   16   17 ar   
    36   17   18 ar   
    37   18   21 1    
    38   21   34 1    
    39   21   35 1    
    40   22   37 1    
    41   22   38 1    
    42   22   39 1    
    43   38   40 1    
    44   38   41 1    
    45   38   43 1    
@<TRIPOS>SUBSTRUCTURE
     1 UNK         1 GROUP             0       ****    0 ROOT    
