@<TRIPOS>MOLECULE
10
41   43    1
SMALL
USER_CHARGES


@<TRIPOS>ATOM
      1 N1         24.5557   41.3942    2.9358 N.pl3     1 UNK         0.0000 
      2 C2         24.8217   42.5879    2.1047 C.3       1 UNK         0.0000 
      3 C3         25.8975   43.4906    2.7355 C.3       1 UNK         0.0000 
      4 C4         27.1938   42.7114    3.0214 C.3       1 UNK         0.0000 
      5 C5         26.8897   41.4069    3.7882 C.3       1 UNK         0.0000 
      6 C6         25.7738   40.5799    3.1148 C.3       1 UNK         0.0000 
      7 C7         19.6903   40.5200    5.5265 C.ar      1 UNK         0.0000 
      8 C8         19.3824   40.8396    6.8595 C.ar      1 UNK         0.0000 
      9 C9         18.0812   40.6300    7.3396 C.ar      1 UNK         0.0000 
     10 C10        17.1026   40.0983    6.5003 C.ar      1 UNK         0.0000 
     11 C11        17.4075   39.7897    5.1791 C.ar      1 UNK         0.0000 
     12 C12        18.6880   40.0180    4.6931 C.ar      1 UNK         0.0000 
     13 C13        21.0236   40.7425    4.9440 C.ar      1 UNK         0.0000 
     14 N14        21.0730   41.7667    4.0636 N.ar      1 UNK         0.0000 
     15 C15        22.2439   41.9993    3.4410 C.ar      1 UNK         0.0000 
     16 C16        23.3841   41.2146    3.6674 C.ar      1 UNK         0.0000 
     17 N17        23.3208   40.1779    4.5575 N.ar      1 UNK         0.0000 
     18 C18        22.1506   39.9550    5.2090 C.ar      1 UNK         0.0000 
     19 Cl19       17.6473   41.0428    8.9606 Cl        1 UNK         0.0000 
     20 Cl20       20.5761   41.5664    7.8891 Cl        1 UNK         0.0000 
     21 N21        28.0749   43.5997    3.9053 N.4       1 UNK         0.0000 
     22 C22        27.9744   42.4341    1.7292 C.3       1 UNK         0.0000 
     23 H23        25.0585   42.3021    1.0792 H         1 UNK         0.0000 
     24 H24        23.9442   43.2084    1.9782 H         1 UNK         0.0000 
     25 H25        25.4794   43.9544    3.6310 H         1 UNK         0.0000 
     26 H26        26.0902   44.3302    2.0637 H         1 UNK         0.0000 
     27 H27        26.5783   41.6104    4.8061 H         1 UNK         0.0000 
     28 H28        27.7884   40.7983    3.8871 H         1 UNK         0.0000 
     29 H29        26.1064   40.1787    2.1571 H         1 UNK         0.0000 
     30 H30        25.5597   39.6965    3.7150 H         1 UNK         0.0000 
     31 H31        16.0953   39.9519    6.8631 H         1 UNK         0.0000 
     32 H32        16.6529   39.3881    4.5218 H         1 UNK         0.0000 
     33 H33        18.9075   39.7684    3.6629 H         1 UNK         0.0000 
     34 H34        28.9389   43.1200    4.1164 H         1 UNK         0.0000 
     35 H35        27.4154   41.7693    1.0708 H         1 UNK         0.0000 
     36 H36        28.9337   41.9601    1.9428 H         1 UNK         0.0000 
     37 H37        28.1654   43.3564    1.1789 H         1 UNK         0.0000 
     38 H38        28.2826   44.4545    3.3885 H         1 UNK         0.0000 
     39 H39        22.1353   39.1266    5.9026 H         1 UNK         0.0000 
     40 H40        22.2035   42.8271    2.7583 H         1 UNK         0.0000 
     41 H41        27.6036   43.8514    4.7631 H         1 UNK         0.0000 
@<TRIPOS>BOND
     1    1    2 1    
     2    1    6 1    
     3    1   16 1    
     4    2    3 1    
     5    2   23 1    
     6    2   24 1    
     7    3    4 1    
     8    3   25 1    
     9    3   26 1    
    10    4    5 1    
    11    4   21 1    
    12    4   22 1    
    13    5    6 1    
    14    5   27 1    
    15    5   28 1    
    16    6   29 1    
    17    6   30 1    
    18    7    8 ar   
    19    7   12 ar   
    20    7   13 1    
    21    8    9 ar   
    22    8   20 1    
    23    9   10 ar   
    24    9   19 1    
    25   10   11 ar   
    26   10   31 1    
    27   11   12 ar   
    28   11   32 1    
    29   12   33 1    
    30   13   14 ar   
    31   13   18 ar   
    32   14   15 ar   
    33   15   16 ar   
    34   15   40 1    
    35   16   17 ar   
    36   17   18 ar   
    37   18   39 1    
    38   21   34 1    
    39   21   38 1    
    40   21   41 1    
    41   22   35 1    
    42   22   36 1    
    43   22   37 1    
@<TRIPOS>SUBSTRUCTURE
     1 UNK         1 GROUP             0       ****    0 ROOT    
