@<TRIPOS>MOLECULE
Example 30
42   44    1
SMALL
USER_CHARGES


@<TRIPOS>ATOM
      1 N1         24.5353   41.3991    2.9617 N.pl3     1 UNK         0.0000 
      2 C2         24.7904   42.5868    2.1178 C.3       1 UNK         0.0000 
      3 C3         25.8810   43.4864    2.7374 C.3       1 UNK         0.0000 
      4 C4         27.1904   42.7177    3.0202 C.3       1 UNK         0.0000 
      5 C5         26.8799   41.4106    3.7771 C.3       1 UNK         0.0000 
      6 C6         25.7613   40.5911    3.1100 C.3       1 UNK         0.0000 
      7 C7         19.6930   40.5254    5.5288 C.ar      1 UNK         0.0000 
      8 C8         19.4034   40.8157    6.8758 C.ar      1 UNK         0.0000 
      9 C9         18.1082   40.6044    7.3696 C.ar      1 UNK         0.0000 
     10 C10        17.1167   40.0887    6.5328 C.ar      1 UNK         0.0000 
     11 C11        17.4098   39.7819    5.2071 C.ar      1 UNK         0.0000 
     12 C12        18.6895   40.0203    4.7125 C.ar      1 UNK         0.0000 
     13 C13        21.0365   40.7490    4.9467 C.ar      1 UNK         0.0000 
     14 N14        21.1333   41.7708    4.0585 N.ar      1 UNK         0.0000 
     15 N15        22.2940   41.9986    3.4273 N.ar      1 UNK         0.0000 
     16 C16        23.3597   41.1910    3.6865 C.ar      1 UNK         0.0000 
     17 N17        23.3270   40.1643    4.5796 N.ar      1 UNK         0.0000 
     18 C18        22.1528   39.9456    5.2064 C.ar      1 UNK         0.0000 
     19 Cl19       17.6833   41.0096    8.9986 Cl        1 UNK         0.0000 
     20 Cl20       20.6245   41.4803    7.9166 Cl        1 UNK         0.0000 
     21 N21        22.1086   38.8756    6.0941 N.pl3     1 UNK         0.0000 
     22 N22        28.0640   43.6032    3.9216 N.4       1 UNK         0.0000 
     23 C23        27.9783   42.4349    1.7217 C.3       1 UNK         0.0000 
     24 H24        25.0622   42.2702    1.1121 H         1 UNK         0.0000 
     25 H25        23.8919   43.1904    1.9925 H         1 UNK         0.0000 
     26 H26        25.4681   43.9379    3.6411 H         1 UNK         0.0000 
     27 H27        26.0761   44.3323    2.0760 H         1 UNK         0.0000 
     28 H28        26.5552   41.6277    4.7883 H         1 UNK         0.0000 
     29 H29        27.7778   40.8018    3.8837 H         1 UNK         0.0000 
     30 H30        26.0791   40.2303    2.1341 H         1 UNK         0.0000 
     31 H31        25.5850   39.6899    3.6945 H         1 UNK         0.0000 
     32 H32        16.1095   39.9553    6.9017 H         1 UNK         0.0000 
     33 H33        16.6477   39.3919    4.5519 H         1 UNK         0.0000 
     34 H34        18.8949   39.7782    3.6715 H         1 UNK         0.0000 
     35 H35        22.9746   38.3788    6.2904 H         1 UNK         0.0000 
     36 H36        21.2689   38.6932    6.6209 H         1 UNK         0.0000 
     37 H37        28.9333   43.1400    4.1444 H         1 UNK         0.0000 
     38 H38        27.4275   41.7736    1.0493 H         1 UNK         0.0000 
     39 H39        28.9366   41.9502    1.9281 H         1 UNK         0.0000 
     40 H40        28.1799   43.3541    1.1679 H         1 UNK         0.0000 
     41 H41        28.2675   44.4651    3.4205 H         1 UNK         0.0000 
     42 H42        27.5917   43.8449    4.7797 H         1 UNK         0.0000 
@<TRIPOS>BOND
     1    1    2 1    
     2    1    6 1    
     3    1   16 1    
     4    2    3 1    
     5    2   24 1    
     6    2   25 1    
     7    3    4 1    
     8    3   26 1    
     9    3   27 1    
    10    4    5 1    
    11    4   22 1    
    12    4   23 1    
    13    5    6 1    
    14    5   28 1    
    15    5   29 1    
    16    6   30 1    
    17    6   31 1    
    18    7    8 ar   
    19    7   12 ar   
    20    7   13 1    
    21    8    9 ar   
    22    8   20 1    
    23    9   10 ar   
    24    9   19 1    
    25   10   11 ar   
    26   10   32 1    
    27   11   12 ar   
    28   11   33 1    
    29   12   34 1    
    30   13   14 ar   
    31   13   18 ar   
    32   14   15 ar   
    33   15   16 ar   
    34   16   17 ar   
    35   17   18 ar   
    36   18   21 1    
    37   21   35 1    
    38   21   36 1    
    39   22   37 1    
    40   22   41 1    
    41   22   42 1    
    42   23   38 1    
    43   23   39 1    
    44   23   40 1    
@<TRIPOS>SUBSTRUCTURE
     1 UNK         1 GROUP             0       ****    0 ROOT    
