@<TRIPOS>MOLECULE
Example 27
43   45    1
SMALL
USER_CHARGES


@<TRIPOS>ATOM
      1 N1         24.6991   41.2880    3.1084 N.pl3     1 UNK         0.0000 
      2 C2         24.7544   42.3659    2.0828 C.3       1 UNK         0.0000 
      3 C3         26.0819   43.1849    2.0777 C.3       1 UNK         0.0000 
      4 N4         27.2540   42.3327    2.4127 N.4       1 UNK         0.0000 
      5 C5         27.1216   41.4947    3.6356 C.3       1 UNK         0.0000 
      6 C6         25.9265   40.5256    3.4438 C.3       1 UNK         0.0000 
      7 C7         19.7062   40.2071    5.4923 C.ar      1 UNK         0.0000 
      8 C8         19.4758   40.5221    6.8291 C.ar      1 UNK         0.0000 
      9 C9         18.1971   40.3798    7.3797 C.ar      1 UNK         0.0000 
     10 C10        17.1161   39.9866    6.5815 C.ar      1 UNK         0.0000 
     11 C11        17.3356   39.6937    5.2208 C.ar      1 UNK         0.0000 
     12 C12        18.6213   39.8380    4.6722 C.ar      1 UNK         0.0000 
     13 C13        21.0642   40.4372    4.9252 C.ar      1 UNK         0.0000 
     14 N14        21.1830   41.4378    3.9557 N.ar      1 UNK         0.0000 
     15 C15        22.3711   41.6614    3.3749 C.ar      1 UNK         0.0000 
     16 C16        23.5007   40.9783    3.7010 C.ar      1 UNK         0.0000 
     17 N17        23.3990   40.0008    4.6377 N.ar      1 UNK         0.0000 
     18 C18        22.2307   39.6970    5.2474 C.ar      1 UNK         0.0000 
     19 Cl19       17.9052   40.7222    9.0484 Cl        1 UNK         0.0000 
     20 Cl20       20.7750   41.0744    7.8377 Cl        1 UNK         0.0000 
     21 N21        22.2224   38.6180    6.2309 N.pl3     1 UNK         0.0000 
     22 C22        26.2822   43.8711    0.7590 C.3       1 UNK         0.0000 
     23 C23        28.3855   40.7216    3.8701 C.3       1 UNK         0.0000 
     24 H24        23.9975   43.1381    2.1866 H         1 UNK         0.0000 
     25 H25        24.5965   41.9041    1.1061 H         1 UNK         0.0000 
     26 H26        26.0162   43.9712    2.8322 H         1 UNK         0.0000 
     27 H27        28.0700   42.9204    2.5053 H         1 UNK         0.0000 
     28 H28        26.9639   42.1287    4.5102 H         1 UNK         0.0000 
     29 H29        25.8110   39.9363    4.3552 H         1 UNK         0.0000 
     30 H30        26.1261   39.8086    2.6459 H         1 UNK         0.0000 
     31 H31        16.1286   39.8947    7.0105 H         1 UNK         0.0000 
     32 H32        16.5088   39.3908    4.5936 H         1 UNK         0.0000 
     33 H33        18.7827   39.6501    3.6201 H         1 UNK         0.0000 
     34 H34        21.3638   38.3701    6.7014 H         1 UNK         0.0000 
     35 H35        23.0753   38.1193    6.4406 H         1 UNK         0.0000 
     36 H36        25.4124   44.4886    0.5350 H         1 UNK         0.0000 
     37 H37        26.4084   43.1235   -0.0241 H         1 UNK         0.0000 
     38 H38        27.1712   44.4998    0.8079 H         1 UNK         0.0000 
     39 H39        28.2774   40.1120    4.7672 H         1 UNK         0.0000 
     40 H40        29.2166   41.4148    3.9999 H         1 UNK         0.0000 
     41 H41        28.5810   40.0763    3.0137 H         1 UNK         0.0000 
     42 H42        27.3953   41.6996    1.6390 H         1 UNK         0.0000 
     43 H43        22.2830   42.4182    2.6166 H         1 UNK         0.0000 
@<TRIPOS>BOND
     1    1    2 1    
     2    1    6 1    
     3    1   16 1    
     4    2    3 1    
     5    2   24 1    
     6    2   25 1    
     7    3    4 1    
     8    3   22 1    
     9    3   26 1    
    10    4    5 1    
    11    4   27 1    
    12    4   42 1    
    13    5    6 1    
    14    5   23 1    
    15    5   28 1    
    16    6   29 1    
    17    6   30 1    
    18    7    8 ar   
    19    7   12 ar   
    20    7   13 1    
    21    8    9 ar   
    22    8   20 1    
    23    9   10 ar   
    24    9   19 1    
    25   10   11 ar   
    26   10   31 1    
    27   11   12 ar   
    28   11   32 1    
    29   12   33 1    
    30   13   14 ar   
    31   13   18 ar   
    32   14   15 ar   
    33   15   16 ar   
    34   15   43 1    
    35   16   17 ar   
    36   17   18 ar   
    37   18   21 1    
    38   21   34 1    
    39   21   35 1    
    40   22   36 1    
    41   22   37 1    
    42   22   38 1    
    43   23   39 1    
    44   23   40 1    
    45   23   41 1    
@<TRIPOS>SUBSTRUCTURE
     1 UNK         1 GROUP             0       ****    0 ROOT    
