@<TRIPOS>MOLECULE
Example 4
43   45    1
SMALL
USER_CHARGES


@<TRIPOS>ATOM
      1 N1         24.5430   41.4114    2.9550 N.pl3     1 UNK         0.0000 
      2 C2         25.7642   40.5993    3.0891 C.3       1 UNK         0.0000 
      3 C3         26.8786   41.4166    3.7666 C.3       1 UNK         0.0000 
      4 C4         27.2006   42.7127    3.0029 C.3       1 UNK         0.0000 
      5 C5         25.8937   43.4892    2.7374 C.3       1 UNK         0.0000 
      6 C6         24.8050   42.5910    2.1109 C.3       1 UNK         0.0000 
      7 C7         21.0144   40.7174    4.9510 C.ar      1 UNK         0.0000 
      8 C8         21.1677   41.7795    4.0783 C.ar      1 UNK         0.0000 
      9 N9         22.3249   42.0375    3.4270 N.ar      1 UNK         0.0000 
     10 C10        23.3661   41.2020    3.6845 C.ar      1 UNK         0.0000 
     11 N11        23.3235   40.1654    4.5608 N.ar      1 UNK         0.0000 
     12 C12        22.1453   39.9248    5.1862 C.ar      1 UNK         0.0000 
     13 N13        22.0944   38.8546    6.0735 N.pl3     1 UNK         0.0000 
     14 N14        28.0809   43.5947    3.9100 N.4       1 UNK         0.0000 
     15 C15        27.9740   42.4207    1.6938 C.3       1 UNK         0.0000 
     16 H16        26.0828   40.2778    2.0962 H         1 UNK         0.0000 
     17 H17        25.5977   39.6787    3.6476 H         1 UNK         0.0000 
     18 H18        26.5281   41.6511    4.7617 H         1 UNK         0.0000 
     19 H19        27.7693   40.8029    3.8916 H         1 UNK         0.0000 
     20 H20        25.4814   43.9202    3.6497 H         1 UNK         0.0000 
     21 H21        26.0840   44.3456    2.0896 H         1 UNK         0.0000 
     22 H22        25.0984   42.2408    1.1213 H         1 UNK         0.0000 
     23 H23        23.9190   43.2070    1.9498 H         1 UNK         0.0000 
     24 H24        28.9707   43.1542    4.0991 H         1 UNK         0.0000 
     25 H25        28.8895   41.8542    1.8809 H         1 UNK         0.0000 
     26 H26        28.2450   43.3369    1.1662 H         1 UNK         0.0000 
     27 H27        27.3855   41.8245    0.9924 H         1 UNK         0.0000 
     28 H28        28.2454   44.4799    3.4324 H         1 UNK         0.0000 
     29 H29        22.9535   38.3533    6.2811 H         1 UNK         0.0000 
     30 H30        20.3465   42.4591    3.9019 H         1 UNK         0.0000 
     31 H31        21.2404   38.6627    6.5726 H         1 UNK         0.0000 
     32 C32        19.7006   40.4765    5.5478 C.2       1 UNK         0.0000 
     33 C33        18.5441   40.0185    4.9425 C.2       1 UNK         0.0000 
     34 C34        17.4703   39.9918    5.8252 C.2       1 UNK         0.0000 
     35 C35        17.7949   40.4352    7.0994 C.2       1 UNK         0.0000 
     36 S36        19.4745   40.8098    7.2203 S.3       1 UNK         0.0000 
     37 H37        18.4766   39.7097    3.9112 H         1 UNK         0.0000 
     38 H38        16.4831   39.6652    5.5342 H         1 UNK         0.0000 
     39 C39        16.9032   40.6023    8.2756 C.3       1 UNK         0.0000 
     40 H40        16.7941   41.6460    8.5777 H         1 UNK         0.0000 
     41 H41        17.2872   40.0431    9.1251 H         1 UNK         0.0000 
     42 H42        15.9194   40.2081    8.0272 H         1 UNK         0.0000 
     43 H43        27.6324   43.8025    4.7935 H         1 UNK         0.0000 
@<TRIPOS>BOND
     1    1    2 1    
     2    1    6 1    
     3    1   10 1    
     4    2    3 1    
     5    2   16 1    
     6    2   17 1    
     7    3    4 1    
     8    3   18 1    
     9    3   19 1    
    10    4    5 1    
    11    4   14 1    
    12    4   15 1    
    13    5    6 1    
    14    5   20 1    
    15    5   21 1    
    16    6   22 1    
    17    6   23 1    
    18    7    8 ar   
    19    7   12 ar   
    20    7   32 1    
    21    8    9 ar   
    22    8   30 1    
    23    9   10 ar   
    24   10   11 ar   
    25   11   12 ar   
    26   12   13 1    
    27   13   29 1    
    28   13   31 1    
    29   14   24 1    
    30   14   28 1    
    31   14   43 1    
    32   15   25 1    
    33   15   26 1    
    34   15   27 1    
    35   32   33 2    
    36   32   36 1    
    37   33   34 1    
    38   33   37 1    
    39   34   35 2    
    40   34   38 1    
    41   35   36 1    
    42   35   39 1    
    43   39   40 1    
    44   39   41 1    
    45   39   42 1    
@<TRIPOS>SUBSTRUCTURE
     1 UNK         1 GROUP             0       ****    0 ROOT    
