@<TRIPOS>MOLECULE
SHP836-2
43   45    1
SMALL
USER_CHARGES


@<TRIPOS>ATOM
      1 N1         24.6991   41.2880    3.1084 N.pl3     1 UNK         0.0000 
      2 C2         24.7544   42.3659    2.0828 C.3       1 UNK         0.0000 
      3 C3         26.0819   43.1849    2.0777 C.3       1 UNK         0.0000 
      4 N4         27.2540   42.3327    2.4127 N.4       1 UNK         0.0000 
      5 C5         27.1216   41.4947    3.6356 C.3       1 UNK         0.0000 
      6 C6         25.9265   40.5256    3.4438 C.3       1 UNK         0.0000 
      7 C7         19.7062   40.2071    5.4923 C.ar      1 UNK         0.0000 
      8 C8         19.4758   40.5221    6.8291 C.ar      1 UNK         0.0000 
      9 C9         18.1971   40.3798    7.3797 C.ar      1 UNK         0.0000 
     10 C10        17.1161   39.9866    6.5815 C.ar      1 UNK         0.0000 
     11 C11        17.3356   39.6937    5.2208 C.ar      1 UNK         0.0000 
     12 C12        18.6213   39.8380    4.6722 C.ar      1 UNK         0.0000 
     13 C13        21.0642   40.4372    4.9252 C.ar      1 UNK         0.0000 
     14 C14        21.1830   41.4378    3.9557 C.ar      1 UNK         0.0000 
     15 N15        22.3711   41.6614    3.3749 N.ar      1 UNK         0.0000 
     16 C16        23.5007   40.9783    3.7010 C.ar      1 UNK         0.0000 
     17 N17        23.3990   40.0008    4.6377 N.ar      1 UNK         0.0000 
     18 C18        22.2307   39.6970    5.2474 C.ar      1 UNK         0.0000 
     19 Cl19       17.9053   40.7260    9.0476 Cl        1 UNK         0.0000 
     20 Cl20       20.7793   41.0806    7.8271 Cl        1 UNK         0.0000 
     21 N21        22.2243   38.6162    6.2289 N.pl3     1 UNK         0.0000 
     22 C22        26.2804   43.8713    0.7588 C.3       1 UNK         0.0000 
     23 C23        28.3857   40.7219    3.8699 C.3       1 UNK         0.0000 
     24 H24        23.9260   43.0695    2.1829 H         1 UNK         0.0000 
     25 H25        24.6132   41.8870    1.1126 H         1 UNK         0.0000 
     26 H26        26.0127   43.9714    2.8315 H         1 UNK         0.0000 
     27 H27        28.0684   42.9226    2.5058 H         1 UNK         0.0000 
     28 H28        26.9647   42.1292    4.5101 H         1 UNK         0.0000 
     29 H29        25.8054   39.9385    4.3559 H         1 UNK         0.0000 
     30 H30        26.1227   39.8070    2.6470 H         1 UNK         0.0000 
     31 H31        16.1290   39.8934    7.0111 H         1 UNK         0.0000 
     32 H32        16.5096   39.3856    4.5953 H         1 UNK         0.0000 
     33 H33        18.7713   39.6322    3.6215 H         1 UNK         0.0000 
     34 H34        20.3447   42.0392    3.6354 H         1 UNK         0.0000 
     35 H35        21.3665   38.3671    6.7002 H         1 UNK         0.0000 
     36 H36        23.0777   38.1175    6.4364 H         1 UNK         0.0000 
     37 H37        25.4101   44.4885    0.5358 H         1 UNK         0.0000 
     38 H38        26.4061   43.1238   -0.0245 H         1 UNK         0.0000 
     39 H39        27.1693   44.5003    0.8067 H         1 UNK         0.0000 
     40 H40        28.2778   40.1122    4.7670 H         1 UNK         0.0000 
     41 H41        29.2167   41.4153    3.9996 H         1 UNK         0.0000 
     42 H42        28.5812   40.0767    3.0134 H         1 UNK         0.0000 
     43 H43        27.3969   41.7025    1.6369 H         1 UNK         0.0000 
@<TRIPOS>BOND
     1    1    2 1    
     2    1    6 1    
     3    1   16 1    
     4    2    3 1    
     5    2   24 1    
     6    2   25 1    
     7    3    4 1    
     8    3   22 1    
     9    3   26 1    
    10    4    5 1    
    11    4   27 1    
    12    4   43 1    
    13    5    6 1    
    14    5   23 1    
    15    5   28 1    
    16    6   29 1    
    17    6   30 1    
    18    7    8 ar   
    19    7   12 ar   
    20    7   13 1    
    21    8    9 ar   
    22    8   20 1    
    23    9   10 ar   
    24    9   19 1    
    25   10   11 ar   
    26   10   31 1    
    27   11   12 ar   
    28   11   32 1    
    29   12   33 1    
    30   13   14 ar   
    31   13   18 ar   
    32   14   15 ar   
    33   14   34 1    
    34   15   16 ar   
    35   16   17 ar   
    36   17   18 ar   
    37   18   21 1    
    38   21   35 1    
    39   21   36 1    
    40   22   37 1    
    41   22   38 1    
    42   22   39 1    
    43   23   40 1    
    44   23   41 1    
    45   23   42 1    
@<TRIPOS>SUBSTRUCTURE
     1 UNK         1 GROUP             0       ****    0 ROOT    
