@<TRIPOS>MOLECULE
Example 26
47   49    1
SMALL
USER_CHARGES


@<TRIPOS>ATOM
      1 N1         24.5435   41.5792    3.1196 N.pl3     1 UNK         0.0000 
      2 C2         25.5708   40.5464    2.8814 C.3       1 UNK         0.0000 
      3 C3         26.9534   40.9118    3.4847 C.3       1 UNK         0.0000 
      4 C4         27.4593   42.3280    3.1172 C.3       1 UNK         0.0000 
      5 C5         26.2942   43.3330    3.1459 C.3       1 UNK         0.0000 
      6 C6         24.9972   42.8297    2.5111 C.3       1 UNK         0.0000 
      7 C7         19.6889   40.5703    5.7978 C.ar      1 UNK         0.0000 
      8 C8         19.5320   40.8408    7.1712 C.ar      1 UNK         0.0000 
      9 C9         18.3134   40.5554    7.8069 C.ar      1 UNK         0.0000 
     10 C10        17.2570   40.0202    7.0752 C.ar      1 UNK         0.0000 
     11 C11        17.4064   39.7521    5.7172 C.ar      1 UNK         0.0000 
     12 C12        18.6163   40.0206    5.0855 C.ar      1 UNK         0.0000 
     13 C13        20.9719   40.8186    5.0870 C.ar      1 UNK         0.0000 
     14 N14        20.9540   41.8118    4.1678 N.ar      1 UNK         0.0000 
     15 C15        22.0756   42.0762    3.4406 C.ar      1 UNK         0.0000 
     16 C16        23.2791   41.3456    3.6789 C.ar      1 UNK         0.0000 
     17 N17        23.2692   40.3395    4.6027 N.ar      1 UNK         0.0000 
     18 C18        22.1341   40.0692    5.2876 C.ar      1 UNK         0.0000 
     19 Cl19       18.0784   40.8427    9.4962 Cl        1 UNK         0.0000 
     20 Cl20       20.8203   41.5878    8.0632 Cl        1 UNK         0.0000 
     21 N21        22.1669   39.0114    6.1899 N.pl3     1 UNK         0.0000 
     22 C22        27.9555   42.2509    1.6614 C.3       1 UNK         0.0000 
     23 N23        28.6011   42.7994    3.9160 N.4       1 UNK         0.0000 
     24 C24        21.8219   43.0847    2.3396 C.2       1 UNK         0.0000 
     25 N25        22.3538   42.8247    1.1534 N.am      1 UNK         0.0000 
     26 O26        21.0327   44.0184    2.4666 O.2       1 UNK         0.0000 
     27 H27        25.2579   39.5917    3.2986 H         1 UNK         0.0000 
     28 H28        25.6526   40.3775    1.8069 H         1 UNK         0.0000 
     29 H29        27.6770   40.1611    3.1633 H         1 UNK         0.0000 
     30 H30        26.8956   40.7970    4.5696 H         1 UNK         0.0000 
     31 H31        26.5440   44.2572    2.6300 H         1 UNK         0.0000 
     32 H32        26.0824   43.6211    4.1756 H         1 UNK         0.0000 
     33 H33        24.2748   43.6201    2.6763 H         1 UNK         0.0000 
     34 H34        25.1052   42.7110    1.4315 H         1 UNK         0.0000 
     35 H35        16.3185   39.7955    7.5604 H         1 UNK         0.0000 
     36 H36        16.5894   39.3207    5.1563 H         1 UNK         0.0000 
     37 H37        18.7190   39.7914    4.0335 H         1 UNK         0.0000 
     38 H38        23.0375   38.5148    6.3535 H         1 UNK         0.0000 
     39 H39        21.3404   38.7890    6.7207 H         1 UNK         0.0000 
     40 H40        22.1176   43.4003    0.3593 H         1 UNK         0.0000 
     41 H41        22.9929   42.0544    1.0175 H         1 UNK         0.0000 
     42 H42        28.8653   43.7258    3.6125 H         1 UNK         0.0000 
     43 H43        28.3416   42.8266    4.8917 H         1 UNK         0.0000 
     44 H44        29.3810   42.1696    3.7926 H         1 UNK         0.0000 
     45 H45        28.3665   43.1464    1.1723 H         1 UNK         0.0000 
     46 H46        27.1612   41.8402    1.0380 H         1 UNK         0.0000 
     47 H47        28.6769   41.4383    1.5758 H         1 UNK         0.0000 
@<TRIPOS>BOND
     1    1    2 1    
     2    1    6 1    
     3    1   16 1    
     4    2    3 1    
     5    2   27 1    
     6    2   28 1    
     7    3    4 1    
     8    3   29 1    
     9    3   30 1    
    10    4    5 1    
    11    4   22 1    
    12    4   23 1    
    13    5    6 1    
    14    5   31 1    
    15    5   32 1    
    16    6   33 1    
    17    6   34 1    
    18    7    8 ar   
    19    7   12 ar   
    20    7   13 1    
    21    8    9 ar   
    22    8   20 1    
    23    9   10 ar   
    24    9   19 1    
    25   10   11 ar   
    26   10   35 1    
    27   11   12 ar   
    28   11   36 1    
    29   12   37 1    
    30   13   14 ar   
    31   13   18 ar   
    32   14   15 ar   
    33   15   16 ar   
    34   15   24 1    
    35   16   17 ar   
    36   17   18 ar   
    37   18   21 1    
    38   21   38 1    
    39   21   39 1    
    40   22   45 1    
    41   22   46 1    
    42   22   47 1    
    43   23   42 1    
    44   23   43 1    
    45   23   44 1    
    46   24   25 am   BACKBONE|DICT|INTERRES
    47   24   26 2    
    48   25   40 1    
    49   25   41 1    
@<TRIPOS>SUBSTRUCTURE
     1 UNK         1 GROUP             0       ****    0 ROOT    
