@<TRIPOS>MOLECULE
Example 28
47   50    1
SMALL
USER_CHARGES


@<TRIPOS>ATOM
      1 N1         24.5514   41.4004    2.9329 N.pl3     1 UNK         0.0000 
      2 C2         24.8291   42.5878    2.0978 C.3       1 UNK         0.0000 
      3 C3         25.9013   43.4869    2.7358 C.3       1 UNK         0.0000 
      4 C4         27.2025   42.7130    3.0211 C.3       1 UNK         0.0000 
      5 C5         26.8895   41.4079    3.7802 C.3       1 UNK         0.0000 
      6 C6         25.7697   40.5859    3.1067 C.3       1 UNK         0.0000 
      7 C7         19.6794   40.5104    5.5019 C.ar      1 UNK         0.0000 
      8 C8         18.6195   40.0391    4.7203 C.ar      1 UNK         0.0000 
      9 C9         17.3223   39.7888    5.2688 C.ar      1 UNK         0.0000 
     10 C10        17.0983   40.0475    6.6166 C.ar      1 UNK         0.0000 
     11 C11        18.1375   40.5477    7.3749 C.ar      1 UNK         0.0000 
     12 C12        19.4091   40.7389    6.8493 C.ar      1 UNK         0.0000 
     13 C13        21.0201   40.7305    4.9348 C.ar      1 UNK         0.0000 
     14 N14        21.0640   41.7682    4.0714 N.ar      1 UNK         0.0000 
     15 C15        22.2386   42.0088    3.4485 C.ar      1 UNK         0.0000 
     16 C16        23.3718   41.2305    3.6715 C.ar      1 UNK         0.0000 
     17 N17        23.3249   40.1985    4.5693 N.ar      1 UNK         0.0000 
     18 C18        22.1491   39.9575    5.2053 C.ar      1 UNK         0.0000 
     19 N19        22.1311   38.8990    6.1150 N.pl3     1 UNK         0.0000 
     20 N20        28.0744   43.6010    3.9172 N.4       1 UNK         0.0000 
     21 C21        27.9821   42.4323    1.7232 C.3       1 UNK         0.0000 
     22 C22        16.5080   39.3055    4.2140 C.ar      1 UNK         0.0000 
     23 C23        17.2883   39.3122    3.1020 C.ar      1 UNK         0.0000 
     24 N24        18.5615   39.7270    3.3961 N.pl3     1 UNK         0.0000 
     25 H25        25.1019   42.2746    1.0887 H         1 UNK         0.0000 
     26 H26        23.9645   43.2246    1.9476 H         1 UNK         0.0000 
     27 H27        25.4768   43.9409    3.6329 H         1 UNK         0.0000 
     28 H28        26.0940   44.3339    2.0744 H         1 UNK         0.0000 
     29 H29        26.5661   41.6170    4.7921 H         1 UNK         0.0000 
     30 H30        27.7871   40.7997    3.8883 H         1 UNK         0.0000 
     31 H31        26.1030   40.2012    2.1409 H         1 UNK         0.0000 
     32 H32        25.5830   39.6922    3.7042 H         1 UNK         0.0000 
     33 H33        16.1261   39.8633    7.0481 H         1 UNK         0.0000 
     34 H34        17.9366   40.7977    8.3897 H         1 UNK         0.0000 
     35 H35        20.2028   41.0754    7.4958 H         1 UNK         0.0000 
     36 H36        22.1832   42.8209    2.7432 H         1 UNK         0.0000 
     37 H37        21.2808   38.6923    6.6167 H         1 UNK         0.0000 
     38 H38        22.9874   38.3835    6.2927 H         1 UNK         0.0000 
     39 H39        28.9438   43.1329    4.1367 H         1 UNK         0.0000 
     40 H40        28.2765   44.4608    3.4084 H         1 UNK         0.0000 
     41 H41        27.4273   41.7698    1.0576 H         1 UNK         0.0000 
     42 H42        28.9404   41.9534    1.9312 H         1 UNK         0.0000 
     43 H43        28.1739   43.3532    1.1710 H         1 UNK         0.0000 
     44 H44        15.4567   39.0511    4.2584 H         1 UNK         0.0000 
     45 H45        17.0853   39.1306    2.0660 H         1 UNK         0.0000 
     46 H46        19.2785   39.8207    2.6938 H         1 UNK         0.0000 
     47 H47        27.6026   43.8497    4.7761 H         1 UNK         0.0000 
@<TRIPOS>BOND
     1    1    2 1    
     2    1    6 1    
     3    1   16 1    
     4    2    3 1    
     5    2   25 1    
     6    2   26 1    
     7    3    4 1    
     8    3   27 1    
     9    3   28 1    
    10    4    5 1    
    11    4   20 1    
    12    4   21 1    
    13    5    6 1    
    14    5   29 1    
    15    5   30 1    
    16    6   31 1    
    17    6   32 1    
    18    7    8 ar   
    19    7   12 ar   
    20    7   13 1    
    21    8    9 ar   
    22    8   24 ar   
    23    9   10 ar   
    24    9   22 ar   
    25   10   11 ar   
    26   10   33 1    
    27   11   12 ar   
    28   11   34 1    
    29   12   35 1    
    30   13   14 ar   
    31   13   18 ar   
    32   14   15 ar   
    33   15   16 ar   
    34   15   36 1    
    35   16   17 ar   
    36   17   18 ar   
    37   18   19 1    
    38   19   37 1    
    39   19   38 1    
    40   20   39 1    
    41   20   40 1    
    42   20   47 1    
    43   21   41 1    
    44   21   42 1    
    45   21   43 1    
    46   22   23 ar   
    47   22   44 1    
    48   23   24 ar   
    49   23   45 1    
    50   24   46 1    
@<TRIPOS>SUBSTRUCTURE
     1 UNK         1 GROUP             0       ****    0 ROOT    
