@<TRIPOS>MOLECULE
3
43   45    1
SMALL
USER_CHARGES


@<TRIPOS>ATOM
      1 N1         24.6991   41.2880    3.1084 N.pl3     1 UNK         0.0000 
      2 C2         24.7544   42.3659    2.0828 C.3       1 UNK         0.0000 
      3 C3         26.0819   43.1849    2.0777 C.3       1 UNK         0.0000 
      4 N4         27.2540   42.3327    2.4127 N.4       1 UNK         0.0000 
      5 C5         27.1216   41.4947    3.6356 C.3       1 UNK         0.0000 
      6 C6         25.9265   40.5256    3.4438 C.3       1 UNK         0.0000 
      7 C7         19.7062   40.2071    5.4923 C.ar      1 UNK         0.0000 
      8 C8         19.4758   40.5221    6.8291 C.ar      1 UNK         0.0000 
      9 C9         18.1971   40.3798    7.3797 C.ar      1 UNK         0.0000 
     10 C10        17.1161   39.9866    6.5815 C.ar      1 UNK         0.0000 
     11 C11        17.3356   39.6937    5.2208 C.ar      1 UNK         0.0000 
     12 C12        18.6213   39.8380    4.6722 C.ar      1 UNK         0.0000 
     13 C13        21.0642   40.4372    4.9252 C.ar      1 UNK         0.0000 
     14 C14        21.1830   41.4378    3.9557 C.ar      1 UNK         0.0000 
     15 N15        22.3711   41.6614    3.3749 N.ar      1 UNK         0.0000 
     16 C16        23.5007   40.9783    3.7010 C.ar      1 UNK         0.0000 
     17 N17        23.3990   40.0008    4.6377 N.ar      1 UNK         0.0000 
     18 C18        22.2307   39.6970    5.2474 C.ar      1 UNK         0.0000 
     19 Cl19       17.9435   40.7315    9.0488 Cl        1 UNK         0.0000 
     20 N20        22.2237   38.6160    6.2287 N.pl3     1 UNK         0.0000 
     21 C21        26.2804   43.8709    0.7586 C.3       1 UNK         0.0000 
     22 C22        28.3857   40.7218    3.8695 C.3       1 UNK         0.0000 
     23 H23        23.9259   43.0694    2.1825 H         1 UNK         0.0000 
     24 H24        24.6132   41.8868    1.1127 H         1 UNK         0.0000 
     25 H25        26.0127   43.9717    2.8313 H         1 UNK         0.0000 
     26 H26        28.0687   42.9223    2.5049 H         1 UNK         0.0000 
     27 H27        26.9651   42.1292    4.5101 H         1 UNK         0.0000 
     28 H28        25.8054   39.9380    4.3555 H         1 UNK         0.0000 
     29 H29        26.1226   39.8073    2.6466 H         1 UNK         0.0000 
     30 H30        20.2827   40.8574    7.4643 H         1 UNK         0.0000 
     31 H31        16.1290   39.8927    7.0109 H         1 UNK         0.0000 
     32 H32        16.5100   39.3854    4.5956 H         1 UNK         0.0000 
     33 H33        18.7705   39.6319    3.6214 H         1 UNK         0.0000 
     34 H34        20.3445   42.0389    3.6351 H         1 UNK         0.0000 
     35 H35        21.3657   38.3671    6.6998 H         1 UNK         0.0000 
     36 H36        23.0769   38.1169    6.4362 H         1 UNK         0.0000 
     37 H37        25.4101   44.4881    0.5355 H         1 UNK         0.0000 
     38 H38        26.4059   43.1231   -0.0245 H         1 UNK         0.0000 
     39 H39        27.1694   44.4998    0.8062 H         1 UNK         0.0000 
     40 H40        28.2781   40.1120    4.7665 H         1 UNK         0.0000 
     41 H41        29.2168   41.4151    3.9991 H         1 UNK         0.0000 
     42 H42        28.5810   40.0767    3.0129 H         1 UNK         0.0000 
     43 H43        27.3962   41.7024    1.6368 H         1 UNK         0.0000 
@<TRIPOS>BOND
     1    1    2 1    
     2    1    6 1    
     3    1   16 1    
     4    2    3 1    
     5    2   23 1    
     6    2   24 1    
     7    3    4 1    
     8    3   21 1    
     9    3   25 1    
    10    4    5 1    
    11    4   26 1    
    12    4   43 1    
    13    5    6 1    
    14    5   22 1    
    15    5   27 1    
    16    6   28 1    
    17    6   29 1    
    18    7    8 ar   
    19    7   12 ar   
    20    7   13 1    
    21    8    9 ar   
    22    8   30 1    
    23    9   10 ar   
    24    9   19 1    
    25   10   11 ar   
    26   10   31 1    
    27   11   12 ar   
    28   11   32 1    
    29   12   33 1    
    30   13   14 ar   
    31   13   18 ar   
    32   14   15 ar   
    33   14   34 1    
    34   15   16 ar   
    35   16   17 ar   
    36   17   18 ar   
    37   18   20 1    
    38   20   35 1    
    39   20   36 1    
    40   21   37 1    
    41   21   38 1    
    42   21   39 1    
    43   22   40 1    
    44   22   41 1    
    45   22   42 1    
@<TRIPOS>SUBSTRUCTURE
     1 UNK         1 GROUP             0       ****    0 ROOT    
