@<TRIPOS>MOLECULE
6
40   42    1
SMALL
USER_CHARGES


@<TRIPOS>ATOM
      1 N1         24.5492   41.4103    2.9581 N.pl3     1 UNK         0.0000 
      2 C2         24.8206   42.5674    2.0917 C.3       1 UNK         0.0000 
      3 C3         25.9010   43.4845    2.7073 C.3       1 UNK         0.0000 
      4 C4         27.2006   42.7197    3.0160 C.3       1 UNK         0.0000 
      5 C5         26.8994   41.4031    3.7428 C.3       1 UNK         0.0000 
      6 C6         25.7707   40.5926    3.0746 C.3       1 UNK         0.0000 
      7 C7         19.6801   40.5131    5.5639 C.ar      1 UNK         0.0000 
      8 C8         19.3880   40.8059    6.9100 C.ar      1 UNK         0.0000 
      9 C9         18.0896   40.6058    7.4051 C.ar      1 UNK         0.0000 
     10 C10        17.0975   40.0865    6.5706 C.ar      1 UNK         0.0000 
     11 C11        17.3885   39.7774    5.2446 C.ar      1 UNK         0.0000 
     12 C12        18.6614   40.0160    4.7431 C.ar      1 UNK         0.0000 
     13 C13        20.9975   40.7599    4.9628 C.ar      1 UNK         0.0000 
     14 C14        21.1772   41.8132    4.0533 C.ar      1 UNK         0.0000 
     15 N15        22.3346   42.0475    3.4126 N.ar      1 UNK         0.0000 
     16 C16        23.3734   41.2177    3.6872 C.ar      1 UNK         0.0000 
     17 N17        23.3126   40.1834    4.5784 N.ar      1 UNK         0.0000 
     18 C18        22.1341   39.9630    5.2013 C.ar      1 UNK         0.0000 
     19 Cl19       17.6784   41.0592    9.0215 Cl        1 UNK         0.0000 
     20 Cl20       20.6099   41.5010    7.9303 Cl        1 UNK         0.0000 
     21 N21        22.0817   38.8852    6.0763 N.pl3     1 UNK         0.0000 
     22 N22        28.0958   43.6100    3.9243 N.4       1 UNK         0.0000 
     23 H23        23.9362   43.1801    1.9134 H         1 UNK         0.0000 
     24 H24        25.1411   42.2139    1.1097 H         1 UNK         0.0000 
     25 H25        26.1018   44.3579    2.0849 H         1 UNK         0.0000 
     26 H26        25.4758   43.9149    3.6140 H         1 UNK         0.0000 
     27 H27        27.8085   40.8158    3.8859 H         1 UNK         0.0000 
     28 H28        26.5566   41.6353    4.7463 H         1 UNK         0.0000 
     29 H29        25.6109   39.6728    3.6282 H         1 UNK         0.0000 
     30 H30        26.0829   40.2916    2.0753 H         1 UNK         0.0000 
     31 H31        16.0828   39.9773    6.9300 H         1 UNK         0.0000 
     32 H32        16.6300   39.3918    4.5807 H         1 UNK         0.0000 
     33 H33        18.8719   39.7811    3.7086 H         1 UNK         0.0000 
     34 H34        28.2559   44.4914    3.4401 H         1 UNK         0.0000 
     35 H35        27.6465   43.8153    4.7999 H         1 UNK         0.0000 
     36 H36        22.9510   38.4014    6.2942 H         1 UNK         0.0000 
     37 H37        20.3640   42.4825    3.8394 H         1 UNK         0.0000 
     38 H38        27.6753   42.4671    2.0654 H         1 UNK         0.0000 
     39 H39        21.2504   38.7041    6.6087 H         1 UNK         0.0000 
     40 H40        28.9838   43.1729    4.1119 H         1 UNK         0.0000 
@<TRIPOS>BOND
     1    1    2 1    
     2    1    6 1    
     3    1   16 1    
     4    2    3 1    
     5    2   23 1    
     6    2   24 1    
     7    3    4 1    
     8    3   25 1    
     9    3   26 1    
    10    4    5 1    
    11    4   22 1    
    12    4   38 1    
    13    5    6 1    
    14    5   27 1    
    15    5   28 1    
    16    6   29 1    
    17    6   30 1    
    18    7    8 ar   
    19    7   12 ar   
    20    7   13 1    
    21    8    9 ar   
    22    8   20 1    
    23    9   10 ar   
    24    9   19 1    
    25   10   11 ar   
    26   10   31 1    
    27   11   12 ar   
    28   11   32 1    
    29   12   33 1    
    30   13   14 ar   
    31   13   18 ar   
    32   14   15 ar   
    33   14   37 1    
    34   15   16 ar   
    35   16   17 ar   
    36   17   18 ar   
    37   18   21 1    
    38   21   36 1    
    39   21   39 1    
    40   22   34 1    
    41   22   35 1    
    42   22   40 1    
@<TRIPOS>SUBSTRUCTURE
     1 UNK         1 GROUP             0       ****    0 ROOT    
