@<TRIPOS>MOLECULE
Example 8
46   48    1
SMALL
USER_CHARGES


@<TRIPOS>ATOM
      1 N1         24.5594   41.3986    2.9317 N.pl3     1 UNK         0.0000 
      2 C2         25.7611   40.5558    3.0894 C.3       1 UNK         0.0000 
      3 C3         26.8712   41.3609    3.7612 C.3       1 UNK         0.0000 
      4 C4         27.2234   42.6835    3.0209 C.3       1 UNK         0.0000 
      5 C5         25.8987   43.4737    2.7315 C.3       1 UNK         0.0000 
      6 C6         24.8053   42.5917    2.0987 C.3       1 UNK         0.0000 
      7 C7         19.6880   40.5151    5.5295 C.ar      1 UNK         0.0000 
      8 C8         19.3970   40.8120    6.8734 C.ar      1 UNK         0.0000 
      9 C9         18.0969   40.6099    7.3595 C.ar      1 UNK         0.0000 
     10 C10        17.1044   40.1134    6.5151 C.ar      1 UNK         0.0000 
     11 C11        17.3955   39.8141    5.1884 C.ar      1 UNK         0.0000 
     12 C12        18.6784   40.0224    4.6979 C.ar      1 UNK         0.0000 
     13 C13        21.0311   40.7308    4.9444 C.ar      1 UNK         0.0000 
     14 N14        21.0849   41.7512    4.0542 N.ar      1 UNK         0.0000 
     15 C15        22.2536   41.9949    3.4287 C.ar      1 UNK         0.0000 
     16 C16        23.3876   41.2120    3.6562 C.ar      1 UNK         0.0000 
     17 N17        23.3295   40.1869    4.5597 N.ar      1 UNK         0.0000 
     18 C18        22.1602   39.9463    5.2058 C.ar      1 UNK         0.0000 
     19 Cl19       17.6785   40.9865    8.9940 Cl        1 UNK         0.0000 
     20 Cl20       20.6272   41.4363    7.9277 Cl        1 UNK         0.0000 
     21 N21        22.1325   38.8841    6.1087 N.pl3     1 UNK         0.0000 
     22 C22        28.1713   43.4659    3.9245 C.3       1 UNK         0.0000 
     23 C23        27.9599   42.4153    1.7087 C.3       1 UNK         0.0000 
     24 H24        25.5418   39.6858    3.7105 H         1 UNK         0.0000 
     25 H25        26.1035   40.1645    2.1335 H         1 UNK         0.0000 
     26 H26        27.7839   40.7770    3.8765 H         1 UNK         0.0000 
     27 H27        26.5428   41.5457    4.7791 H         1 UNK         0.0000 
     28 H28        26.0922   44.3272    2.0734 H         1 UNK         0.0000 
     29 H29        25.4755   43.9389    3.6240 H         1 UNK         0.0000 
     30 H30        23.9086   43.1927    1.9970 H         1 UNK         0.0000 
     31 H31        25.0548   42.3035    1.0774 H         1 UNK         0.0000 
     32 H32        16.0979   39.9774    6.8828 H         1 UNK         0.0000 
     33 H33        18.8869   39.7946    3.6591 H         1 UNK         0.0000 
     34 H34        22.2197   42.8194    2.7371 H         1 UNK         0.0000 
     35 H35        22.9863   38.3608    6.2905 H         1 UNK         0.0000 
     36 H36        21.2877   38.6934    6.6244 H         1 UNK         0.0000 
     37 H37        27.3855   41.8135    1.0137 H         1 UNK         0.0000 
     38 H38        28.8919   41.8903    1.9260 H         1 UNK         0.0000 
     39 H39        28.2305   43.3531    1.2163 H         1 UNK         0.0000 
     40 H40        16.6291   39.4353    4.5313 H         1 UNK         0.0000 
     41 H41        29.2219   43.1499    3.9643 H         1 UNK         0.0000 
     42 N42        27.6581   43.5644    5.3258 N.4       1 UNK         0.0000 
     43 H43        28.1411   44.4660    3.7490 H         1 UNK         0.0000 
     44 H44        28.3153   44.1625    5.8628 H         1 UNK         0.0000 
     45 H45        26.7496   43.9973    5.3977 H         1 UNK         0.0000 
     46 H46        27.6704   42.6729    5.7808 H         1 UNK         0.0000 
@<TRIPOS>BOND
     1    1    2 1    
     2    1    6 1    
     3    1   16 1    
     4    2    3 1    
     5    2   24 1    
     6    2   25 1    
     7    3    4 1    
     8    3   26 1    
     9    3   27 1    
    10    4    5 1    
    11    4   22 1    
    12    4   23 1    
    13    5    6 1    
    14    5   28 1    
    15    5   29 1    
    16    6   30 1    
    17    6   31 1    
    18    7    8 ar   
    19    7   12 ar   
    20    7   13 1    
    21    8    9 ar   
    22    8   20 1    
    23    9   10 ar   
    24    9   19 1    
    25   10   11 ar   
    26   10   32 1    
    27   11   12 ar   
    28   11   40 1    
    29   12   33 1    
    30   13   14 ar   
    31   13   18 ar   
    32   14   15 ar   
    33   15   16 ar   
    34   15   34 1    
    35   16   17 ar   
    36   17   18 ar   
    37   18   21 1    
    38   21   35 1    
    39   21   36 1    
    40   22   41 1    
    41   22   42 1    
    42   22   43 1    
    43   23   37 1    
    44   23   38 1    
    45   23   39 1    
    46   42   44 1    
    47   42   45 1    
    48   42   46 1    
@<TRIPOS>SUBSTRUCTURE
     1 UNK         1 GROUP             0       ****    0 ROOT    
