@<TRIPOS>MOLECULE
Example 29
47   49    1
SMALL
USER_CHARGES


@<TRIPOS>ATOM
      1 N1         24.4107   41.3723    2.7009 N.pl3     1 UNK         0.0000 
      2 C2         24.7838   42.6182    2.0126 C.3       1 UNK         0.0000 
      3 C3         25.7794   43.4100    2.8966 C.3       1 UNK         0.0000 
      4 C4         27.0503   42.5825    3.2063 C.3       1 UNK         0.0000 
      5 C5         26.6622   41.1652    3.7013 C.3       1 UNK         0.0000 
      6 C6         25.6079   40.5090    2.7764 C.3       1 UNK         0.0000 
      7 C7         19.8516   40.7173    5.9010 C.2       1 UNK         0.0000 
      8 C8         18.7679   40.1939    5.2879 C.2       1 UNK         0.0000 
      9 C9         17.4557   39.8383    5.9773 C.3       1 UNK         0.0000 
     10 C10        17.5170   39.9824    7.5197 C.3       1 UNK         0.0000 
     11 C11        18.5283   41.0246    8.0301 C.3       1 UNK         0.0000 
     12 C12        19.9293   40.8002    7.4266 C.3       1 UNK         0.0000 
     13 C13        21.0896   40.8699    5.1066 C.ar      1 UNK         0.0000 
     14 N14        21.1118   41.9493    4.2811 N.ar      1 UNK         0.0000 
     15 C15        22.2110   42.1308    3.5040 C.ar      1 UNK         0.0000 
     16 C16        23.3187   41.2685    3.5616 C.ar      1 UNK         0.0000 
     17 N17        23.2859   40.1996    4.4067 N.ar      1 UNK         0.0000 
     18 C18        22.1835   39.9940    5.1662 C.ar      1 UNK         0.0000 
     19 N19        22.1653   38.8572    5.9693 N.pl3     1 UNK         0.0000 
     20 N20        27.7758   43.2939    4.3522 N.4       1 UNK         0.0000 
     21 C21        28.0247   42.5438    2.0086 C.3       1 UNK         0.0000 
     22 H22        25.2593   42.3635    1.0629 H         1 UNK         0.0000 
     23 H23        23.9239   43.2239    1.7281 H         1 UNK         0.0000 
     24 H24        25.2565   43.6727    3.8197 H         1 UNK         0.0000 
     25 H25        26.0356   44.3662    2.4332 H         1 UNK         0.0000 
     26 H26        26.2316   41.2047    4.7056 H         1 UNK         0.0000 
     27 H27        27.5425   40.5253    3.7846 H         1 UNK         0.0000 
     28 H28        26.0191   40.3826    1.7722 H         1 UNK         0.0000 
     29 H29        25.3571   39.5018    3.1076 H         1 UNK         0.0000 
     30 H30        18.8198   40.0275    4.2183 H         1 UNK         0.0000 
     31 H31        17.1576   38.8236    5.7071 H         1 UNK         0.0000 
     32 H32        16.6743   40.4781    5.5749 H         1 UNK         0.0000 
     33 H33        16.5193   40.1998    7.9100 H         1 UNK         0.0000 
     34 H34        17.7737   39.0117    7.9454 H         1 UNK         0.0000 
     35 H35        18.5840   40.9789    9.1205 H         1 UNK         0.0000 
     36 H36        18.1707   42.0204    7.7852 H         1 UNK         0.0000 
     37 H37        20.6237   41.5803    7.7370 H         1 UNK         0.0000 
     38 H38        20.3330   39.8688    7.8277 H         1 UNK         0.0000 
     39 H39        22.1715   42.9725    2.8339 H         1 UNK         0.0000 
     40 H40        21.3346   38.6403    6.4968 H         1 UNK         0.0000 
     41 H41        23.0121   38.3087    6.0818 H         1 UNK         0.0000 
     42 H42        28.6348   42.8196    4.5944 H         1 UNK         0.0000 
     43 H43        28.0010   44.2418    4.0797 H         1 UNK         0.0000 
     44 H44        27.5905   42.0350    1.1500 H         1 UNK         0.0000 
     45 H45        28.9484   42.0199    2.2567 H         1 UNK         0.0000 
     46 H46        28.2988   43.5491    1.6812 H         1 UNK         0.0000 
     47 H47        27.1913   43.3357    5.1774 H         1 UNK         0.0000 
@<TRIPOS>BOND
     1    1    2 1    
     2    1    6 1    
     3    1   16 1    
     4    2    3 1    
     5    2   22 1    
     6    2   23 1    
     7    3    4 1    
     8    3   24 1    
     9    3   25 1    
    10    4    5 1    
    11    4   20 1    
    12    4   21 1    
    13    5    6 1    
    14    5   26 1    
    15    5   27 1    
    16    6   28 1    
    17    6   29 1    
    18    7    8 2    
    19    7   12 1    
    20    7   13 1    
    21    8    9 1    
    22    8   30 1    
    23    9   10 1    
    24    9   31 1    
    25    9   32 1    
    26   10   11 1    
    27   10   33 1    
    28   10   34 1    
    29   11   12 1    
    30   11   35 1    
    31   11   36 1    
    32   12   37 1    
    33   12   38 1    
    34   13   14 ar   
    35   13   18 ar   
    36   14   15 ar   
    37   15   16 ar   
    38   15   39 1    
    39   16   17 ar   
    40   17   18 ar   
    41   18   19 1    
    42   19   40 1    
    43   19   41 1    
    44   20   42 1    
    45   20   43 1    
    46   20   47 1    
    47   21   44 1    
    48   21   45 1    
    49   21   46 1    
@<TRIPOS>SUBSTRUCTURE
     1 UNK         1 GROUP             0       ****    0 ROOT    
