@<TRIPOS>MOLECULE
Example 25
44   46    1
SMALL
USER_CHARGES


@<TRIPOS>ATOM
      1 N1         24.7929   41.5142    3.1477 N.pl3     1 UNK         0.0000 
      2 C2         25.8344   40.4760    3.0612 C.3       1 UNK         0.0000 
      3 C3         27.1748   40.9732    3.6511 C.3       1 UNK         0.0000 
      4 C4         27.7037   42.2764    2.9922 C.3       1 UNK         0.0000 
      5 C5         26.5450   43.2287    2.5702 C.3       1 UNK         0.0000 
      6 C6         25.1808   42.5876    2.2240 C.3       1 UNK         0.0000 
      7 C7         19.8262   40.5700    5.6738 C.ar      1 UNK         0.0000 
      8 C8         19.5917   40.8481    7.0366 C.ar      1 UNK         0.0000 
      9 C9         18.3265   40.5734    7.5966 C.ar      1 UNK         0.0000 
     10 C10        17.3166   40.0191    6.8151 C.ar      1 UNK         0.0000 
     11 C11        17.5480   39.7348    5.4706 C.ar      1 UNK         0.0000 
     12 C12        18.7902   40.0223    4.9119 C.ar      1 UNK         0.0000 
     13 C13        21.1469   40.7953    5.0104 C.ar      1 UNK         0.0000 
     14 N14        21.1477   41.7025    4.0132 N.ar      1 UNK         0.0000 
     15 C15        22.2993   41.9387    3.3328 C.ar      1 UNK         0.0000 
     16 C16        23.5053   41.2696    3.6590 C.ar      1 UNK         0.0000 
     17 N17        23.4706   40.3379    4.6584 N.ar      1 UNK         0.0000 
     18 C18        22.3243   40.0948    5.3241 C.ar      1 UNK         0.0000 
     19 Cl19       17.9779   40.9265    9.2500 Cl        1 UNK         0.0000 
     20 Cl20       20.8097   41.6023    8.0169 Cl        1 UNK         0.0000 
     21 N21        22.3429   39.1348    6.3276 N.pl3     1 UNK         0.0000 
     22 C22        28.3987   41.8105    1.6993 C.3       1 UNK         0.0000 
     23 N23        28.7321   42.9896    3.7652 N.4       1 UNK         0.0000 
     24 C24        22.0782   42.8210    2.2061 C.1       1 UNK         0.0000 
     25 N25        21.8991   43.5262    1.2952 N.1       1 UNK         0.0000 
     26 H26        25.5368   39.5615    3.5507 H         1 UNK         0.0000 
     27 H27        25.9715   40.1872    2.0179 H         1 UNK         0.0000 
     28 H28        27.8971   40.1658    3.5581 H         1 UNK         0.0000 
     29 H29        27.0447   41.1141    4.7328 H         1 UNK         0.0000 
     30 H30        26.8505   43.8540    1.7352 H         1 UNK         0.0000 
     31 H31        26.3764   43.9599    3.3678 H         1 UNK         0.0000 
     32 H32        24.4947   43.4179    2.3116 H         1 UNK         0.0000 
     33 H33        25.1317   42.2639    1.1822 H         1 UNK         0.0000 
     34 H34        16.3537   39.7954    7.2470 H         1 UNK         0.0000 
     35 H35        16.7707   39.2857    4.8626 H         1 UNK         0.0000 
     36 H36        18.9498   39.7782    3.8664 H         1 UNK         0.0000 
     37 H37        21.4774   38.9007    6.7877 H         1 UNK         0.0000 
     38 H38        23.1967   38.6071    6.5093 H         1 UNK         0.0000 
     39 H39        28.8686   42.5474    1.0313 H         1 UNK         0.0000 
     40 H40        27.7017   41.2032    1.1219 H         1 UNK         0.0000 
     41 H41        29.1298   41.0412    1.9479 H         1 UNK         0.0000 
     42 H42        29.0157   43.8194    3.2640 H         1 UNK         0.0000 
     43 H43        28.3558   43.2524    4.6649 H         1 UNK         0.0000 
     44 H44        29.5317   42.3870    3.8979 H         1 UNK         0.0000 
@<TRIPOS>BOND
     1    1    2 1    
     2    1    6 1    
     3    1   16 1    
     4    2    3 1    
     5    2   26 1    
     6    2   27 1    
     7    3    4 1    
     8    3   28 1    
     9    3   29 1    
    10    4    5 1    
    11    4   22 1    
    12    4   23 1    
    13    5    6 1    
    14    5   30 1    
    15    5   31 1    
    16    6   32 1    
    17    6   33 1    
    18    7    8 ar   
    19    7   12 ar   
    20    7   13 1    
    21    8    9 ar   
    22    8   20 1    
    23    9   10 ar   
    24    9   19 1    
    25   10   11 ar   
    26   10   34 1    
    27   11   12 ar   
    28   11   35 1    
    29   12   36 1    
    30   13   14 ar   
    31   13   18 ar   
    32   14   15 ar   
    33   15   16 ar   
    34   15   24 1    
    35   16   17 ar   
    36   17   18 ar   
    37   18   21 1    
    38   21   37 1    
    39   21   38 1    
    40   22   39 1    
    41   22   40 1    
    42   22   41 1    
    43   23   42 1    
    44   23   43 1    
    45   23   44 1    
    46   24   25 3    
@<TRIPOS>SUBSTRUCTURE
     1 UNK         1 GROUP             0       ****    0 ROOT    
