@<TRIPOS>MOLECULE
SHP099-1_Example 7
43   45    1
SMALL
USER_CHARGES


@<TRIPOS>ATOM
      1 N1         24.5722   41.4017    2.9497 N.pl3     1 UNK         0.0000 
      2 C2         24.8073   42.5904    2.1071 C.3       1 UNK         0.0000 
      3 C3         25.8882   43.4955    2.7352 C.3       1 UNK         0.0000 
      4 C4         27.1844   42.7081    3.0173 C.3       1 UNK         0.0000 
      5 C5         26.8880   41.4066    3.7995 C.3       1 UNK         0.0000 
      6 C6         25.7788   40.5760    3.1172 C.3       1 UNK         0.0000 
      7 C7         19.6941   40.5278    5.5181 C.ar      1 UNK         0.0000 
      8 C8         19.4037   40.8004    6.8683 C.ar      1 UNK         0.0000 
      9 C9         18.1005   40.6055    7.3543 C.ar      1 UNK         0.0000 
     10 C10        17.1024   40.1270    6.5070 C.ar      1 UNK         0.0000 
     11 C11        17.3911   39.8460    5.1764 C.ar      1 UNK         0.0000 
     12 C12        18.6755   40.0507    4.6853 C.ar      1 UNK         0.0000 
     13 C13        21.0420   40.7304    4.9310 C.ar      1 UNK         0.0000 
     14 N14        21.0963   41.7469    4.0374 N.ar      1 UNK         0.0000 
     15 C15        22.2680   41.9826    3.4209 C.ar      1 UNK         0.0000 
     16 C16        23.3992   41.2013    3.6601 C.ar      1 UNK         0.0000 
     17 N17        23.3400   40.1644    4.5484 N.ar      1 UNK         0.0000 
     18 C18        22.1710   39.9440    5.2012 C.ar      1 UNK         0.0000 
     19 Cl19       17.6893   40.9440    9.0001 Cl        1 UNK         0.0000 
     20 Cl20       20.6364   41.3873    7.9395 Cl        1 UNK         0.0000 
     21 N21        22.1416   38.8888    6.1136 N.pl3     1 UNK         0.0000 
     22 N22        28.0989   43.5943    3.8660 N.4       1 UNK         0.0000 
     23 C23        27.9436   42.4192    1.7238 C.3       1 UNK         0.0000 
     24 H24        25.0503   42.2737    1.0942 H         1 UNK         0.0000 
     25 H25        23.9119   43.1848    1.9547 H         1 UNK         0.0000 
     26 H26        25.4859   43.9463    3.6444 H         1 UNK         0.0000 
     27 H27        26.0860   44.3382    2.0668 H         1 UNK         0.0000 
     28 H28        26.5729   41.6227    4.8160 H         1 UNK         0.0000 
     29 H29        27.7863   40.7975    3.9041 H         1 UNK         0.0000 
     30 H30        26.0871   40.2123    2.1375 H         1 UNK         0.0000 
     31 H31        25.5582   39.6711    3.6882 H         1 UNK         0.0000 
     32 H32        16.0966   39.9833    6.8773 H         1 UNK         0.0000 
     33 H33        16.6181   39.4786    4.5197 H         1 UNK         0.0000 
     34 H34        18.8774   39.8300    3.6455 H         1 UNK         0.0000 
     35 H35        22.2396   42.8343    2.7649 H         1 UNK         0.0000 
     36 H36        21.2965   38.6913    6.6248 H         1 UNK         0.0000 
     37 H37        22.9864   38.3512    6.2928 H         1 UNK         0.0000 
     38 H38        28.9778   43.1202    4.0164 H         1 UNK         0.0000 
     39 H39        28.2718   44.4626    3.3564 H         1 UNK         0.0000 
     40 H40        27.3240   41.8322    1.0495 H         1 UNK         0.0000 
     41 H41        28.8549   41.8535    1.9210 H         1 UNK         0.0000 
     42 H42        28.2173   43.3396    1.2082 H         1 UNK         0.0000 
     43 H43        27.6680   43.8147    4.7509 H         1 UNK         0.0000 
@<TRIPOS>BOND
     1    1    2 1    
     2    1    6 1    
     3    1   16 1    
     4    2    3 1    
     5    2   24 1    
     6    2   25 1    
     7    3    4 1    
     8    3   26 1    
     9    3   27 1    
    10    4    5 1    
    11    4   22 1    
    12    4   23 1    
    13    5    6 1    
    14    5   28 1    
    15    5   29 1    
    16    6   30 1    
    17    6   31 1    
    18    7    8 ar   
    19    7   12 ar   
    20    7   13 1    
    21    8    9 ar   
    22    8   20 1    
    23    9   10 ar   
    24    9   19 1    
    25   10   11 ar   
    26   10   32 1    
    27   11   12 ar   
    28   11   33 1    
    29   12   34 1    
    30   13   14 ar   
    31   13   18 ar   
    32   14   15 ar   
    33   15   16 ar   
    34   15   35 1    
    35   16   17 ar   
    36   17   18 ar   
    37   18   21 1    
    38   21   36 1    
    39   21   37 1    
    40   22   38 1    
    41   22   39 1    
    42   22   43 1    
    43   23   40 1    
    44   23   41 1    
    45   23   42 1    
@<TRIPOS>SUBSTRUCTURE
     1 UNK         1 GROUP             0       ****    0 ROOT    
