@<TRIPOS>MOLECULE
Example 24
46   48    1
SMALL
USER_CHARGES


@<TRIPOS>ATOM
      1 N1         24.6100   41.5762    3.1805 N.pl3     1 UNK         0.0000 
      2 C2         25.1012   42.9418    2.9241 C.3       1 UNK         0.0000 
      3 C3         26.5271   43.2119    3.4404 C.3       1 UNK         0.0000 
      4 C4         27.5120   42.1773    2.8862 C.3       1 UNK         0.0000 
      5 C5         27.0075   40.8187    3.4015 C.3       1 UNK         0.0000 
      6 C6         25.5915   40.5142    2.8619 C.3       1 UNK         0.0000 
      7 C7         19.6895   40.5804    5.6954 C.ar      1 UNK         0.0000 
      8 C8         19.5253   40.8623    7.0657 C.ar      1 UNK         0.0000 
      9 C9         18.3098   40.5691    7.7016 C.ar      1 UNK         0.0000 
     10 C10        17.2585   40.0212    6.9710 C.ar      1 UNK         0.0000 
     11 C11        17.4135   39.7425    5.6150 C.ar      1 UNK         0.0000 
     12 C12        18.6218   40.0211    4.9824 C.ar      1 UNK         0.0000 
     13 C13        20.9859   40.8084    5.0038 C.ar      1 UNK         0.0000 
     14 N14        20.9938   41.7637    4.0398 N.ar      1 UNK         0.0000 
     15 C15        22.1560   42.0156    3.3787 C.ar      1 UNK         0.0000 
     16 C16        23.3435   41.3173    3.7063 C.ar      1 UNK         0.0000 
     17 N17        23.3074   40.3369    4.6515 N.ar      1 UNK         0.0000 
     18 C18        22.1430   40.0739    5.2861 C.ar      1 UNK         0.0000 
     19 Cl19       18.0795   40.8700    9.3883 Cl        1 UNK         0.0000 
     20 Cl20       20.8043   41.6192    7.9628 Cl        1 UNK         0.0000 
     21 N21        22.1461   39.0394    6.2158 N.pl3     1 UNK         0.0000 
     22 N22        28.8772   42.4513    3.5251 N.4       1 UNK         0.0000 
     23 C23        27.7125   42.2524    1.3549 C.3       1 UNK         0.0000 
     24 H24        25.0251   43.1641    1.8595 H         1 UNK         0.0000 
     25 H25        24.4482   43.6227    3.4588 H         1 UNK         0.0000 
     26 H26        26.5072   43.2143    4.5307 H         1 UNK         0.0000 
     27 H27        26.8355   44.2201    3.1804 H         1 UNK         0.0000 
     28 H28        26.9672   40.7880    4.4945 H         1 UNK         0.0000 
     29 H29        27.6964   40.0229    3.1443 H         1 UNK         0.0000 
     30 H30        25.6085   40.3843    1.7784 H         1 UNK         0.0000 
     31 H31        25.2756   39.5545    3.2675 H         1 UNK         0.0000 
     32 H32        16.3244   39.7869    7.4634 H         1 UNK         0.0000 
     33 H33        18.7352   39.7751    3.9346 H         1 UNK         0.0000 
     34 C34        21.9938   42.9789    2.2034 C.3       1 UNK         0.0000 
     35 H35        23.0100   38.5389    6.4063 H         1 UNK         0.0000 
     36 H36        21.2983   38.8233    6.7146 H         1 UNK         0.0000 
     37 H37        29.5591   41.7753    3.1813 H         1 UNK         0.0000 
     38 H38        26.7880   42.0817    0.8050 H         1 UNK         0.0000 
     39 H39        28.4324   41.5072    1.0133 H         1 UNK         0.0000 
     40 H40        28.0791   43.2320    1.0448 H         1 UNK         0.0000 
     41 H41        29.1960   43.3780    3.2760 H         1 UNK         0.0000 
     42 H42        16.6052   39.2945    5.0545 H         1 UNK         0.0000 
     43 H43        21.2382   43.7363    2.4123 H         1 UNK         0.0000 
     44 H44        21.6793   42.4241    1.3190 H         1 UNK         0.0000 
     45 H45        22.8897   43.5171    1.9214 H         1 UNK         0.0000 
     46 H46        28.8262   42.3954    4.5336 H         1 UNK         0.0000 
@<TRIPOS>BOND
     1    1    2 1    
     2    1    6 1    
     3    1   16 1    
     4    2    3 1    
     5    2   24 1    
     6    2   25 1    
     7    3    4 1    
     8    3   26 1    
     9    3   27 1    
    10    4    5 1    
    11    4   22 1    
    12    4   23 1    
    13    5    6 1    
    14    5   28 1    
    15    5   29 1    
    16    6   30 1    
    17    6   31 1    
    18    7    8 ar   
    19    7   12 ar   
    20    7   13 1    
    21    8    9 ar   
    22    8   20 1    
    23    9   10 ar   
    24    9   19 1    
    25   10   11 ar   
    26   10   32 1    
    27   11   12 ar   
    28   11   42 1    
    29   12   33 1    
    30   13   14 ar   
    31   13   18 ar   
    32   14   15 ar   
    33   15   16 ar   
    34   15   34 1    
    35   16   17 ar   
    36   17   18 ar   
    37   18   21 1    
    38   21   35 1    
    39   21   36 1    
    40   22   37 1    
    41   22   41 1    
    42   22   46 1    
    43   23   38 1    
    44   23   39 1    
    45   23   40 1    
    46   34   43 1    
    47   34   44 1    
    48   34   45 1    
@<TRIPOS>SUBSTRUCTURE
     1 UNK         1 GROUP             0       ****    0 ROOT    
