@<TRIPOS>MOLECULE
Example 23
43   45    1
SMALL
USER_CHARGES


@<TRIPOS>ATOM
      1 N1         24.5404   41.5885    3.3090 N.pl3     1 UNK         0.0000 
      2 C2         24.8982   42.8207    2.6006 C.3       1 UNK         0.0000 
      3 C3         26.2819   43.3367    3.0100 C.3       1 UNK         0.0000 
      4 C4         27.3971   42.2987    2.8091 C.3       1 UNK         0.0000 
      5 C5         26.9514   40.9750    3.4735 C.3       1 UNK         0.0000 
      6 C6         25.5365   40.5417    3.0039 C.3       1 UNK         0.0000 
      7 C7         19.5908   40.5482    5.7796 C.ar      1 UNK         0.0000 
      8 C8         19.3934   40.8482    7.1425 C.ar      1 UNK         0.0000 
      9 C9         18.1521   40.5813    7.7423 C.ar      1 UNK         0.0000 
     10 C10        17.1217   40.0191    6.9875 C.ar      1 UNK         0.0000 
     11 C11        17.3078   39.7413    5.6358 C.ar      1 UNK         0.0000 
     12 C12        18.5344   40.0192    5.0382 C.ar      1 UNK         0.0000 
     13 C13        20.9028   40.7687    5.1073 C.ar      1 UNK         0.0000 
     14 N14        20.9078   41.7188    4.1417 N.ar      1 UNK         0.0000 
     15 C15        22.0632   41.9854    3.4794 C.ar      1 UNK         0.0000 
     16 C16        23.2624   41.3076    3.8120 C.ar      1 UNK         0.0000 
     17 N17        23.2282   40.3206    4.7525 N.ar      1 UNK         0.0000 
     18 C18        22.0678   40.0524    5.3940 C.ar      1 UNK         0.0000 
     19 Cl19       17.8605   40.9445    9.4073 Cl        1 UNK         0.0000 
     20 Cl20       20.6492   41.6069    8.0667 Cl        1 UNK         0.0000 
     21 N21        22.0799   39.0352    6.3399 N.pl3     1 UNK         0.0000 
     22 N22        28.6403   42.8202    3.5448 N.4       1 UNK         0.0000 
     23 C23        27.7928   42.1290    1.3299 C.3       1 UNK         0.0000 
     24 H24        24.8178   42.6857    1.5203 H         1 UNK         0.0000 
     25 H25        24.2286   43.6152    2.9029 H         1 UNK         0.0000 
     26 H26        26.2161   43.6207    4.0603 H         1 UNK         0.0000 
     27 H27        26.4810   44.2580    2.4609 H         1 UNK         0.0000 
     28 H28        26.9134   41.0715    4.5641 H         1 UNK         0.0000 
     29 H29        27.6822   40.1891    3.2852 H         1 UNK         0.0000 
     30 H30        25.5245   40.3383    1.9332 H         1 UNK         0.0000 
     31 H31        25.2946   39.5971    3.4899 H         1 UNK         0.0000 
     32 H32        16.1718   39.8031    7.4535 H         1 UNK         0.0000 
     33 H33        18.6691   39.7720    3.9920 H         1 UNK         0.0000 
     34 Cl34       21.9002   43.1348    2.1934 Cl        1 UNK         0.0000 
     35 H35        21.2246   38.7897    6.8170 H         1 UNK         0.0000 
     36 H36        22.9415   38.5372    6.5292 H         1 UNK         0.0000 
     37 H37        29.4267   42.2097    3.3639 H         1 UNK         0.0000 
     38 H38        26.9724   41.7611    0.7163 H         1 UNK         0.0000 
     39 H39        28.6122   41.4170    1.2248 H         1 UNK         0.0000 
     40 H40        28.1175   43.0722    0.8894 H         1 UNK         0.0000 
     41 H41        28.8625   43.7498    3.2184 H         1 UNK         0.0000 
     42 H42        16.5085   39.3000    5.0566 H         1 UNK         0.0000 
     43 H43        28.4824   42.8752    4.5419 H         1 UNK         0.0000 
@<TRIPOS>BOND
     1    1    2 1    
     2    1    6 1    
     3    1   16 1    
     4    2    3 1    
     5    2   24 1    
     6    2   25 1    
     7    3    4 1    
     8    3   26 1    
     9    3   27 1    
    10    4    5 1    
    11    4   22 1    
    12    4   23 1    
    13    5    6 1    
    14    5   28 1    
    15    5   29 1    
    16    6   30 1    
    17    6   31 1    
    18    7    8 ar   
    19    7   12 ar   
    20    7   13 1    
    21    8    9 ar   
    22    8   20 1    
    23    9   10 ar   
    24    9   19 1    
    25   10   11 ar   
    26   10   32 1    
    27   11   12 ar   
    28   11   42 1    
    29   12   33 1    
    30   13   14 ar   
    31   13   18 ar   
    32   14   15 ar   
    33   15   16 ar   
    34   15   34 1    
    35   16   17 ar   
    36   17   18 ar   
    37   18   21 1    
    38   21   35 1    
    39   21   36 1    
    40   22   37 1    
    41   22   41 1    
    42   22   43 1    
    43   23   38 1    
    44   23   39 1    
    45   23   40 1    
@<TRIPOS>SUBSTRUCTURE
     1 UNK         1 GROUP             0       ****    0 ROOT    
