@<TRIPOS>MOLECULE
Example 2
46   48    1
SMALL
USER_CHARGES


@<TRIPOS>ATOM
      1 N1         24.5912   41.4412    2.9628 N.pl3     1 UNK         0.0000 
      2 C2         25.7880   40.5839    3.0947 C.3       1 UNK         0.0000 
      3 C3         26.8827   41.4187    3.7819 C.3       1 UNK         0.0000 
      4 C4         27.2037   42.7296    3.0208 C.3       1 UNK         0.0000 
      5 C5         25.8914   43.4984    2.7286 C.3       1 UNK         0.0000 
      6 C6         24.8146   42.6072    2.0858 C.3       1 UNK         0.0000 
      7 C7         19.6867   40.5350    5.5377 C.ar      1 UNK         0.0000 
      8 C8         19.4006   40.8261    6.8758 C.ar      1 UNK         0.0000 
      9 C9         18.1051   40.6078    7.3743 C.ar      1 UNK         0.0000 
     10 C10        17.1087   40.0858    6.5430 C.ar      1 UNK         0.0000 
     11 C11        17.4034   39.7629    5.2225 C.ar      1 UNK         0.0000 
     12 C12        18.6796   40.0169    4.7228 C.ar      1 UNK         0.0000 
     13 C13        21.0271   40.7724    4.9478 C.ar      1 UNK         0.0000 
     14 C14        21.1661   41.8108    4.0707 C.ar      1 UNK         0.0000 
     15 N15        22.3393   42.0621    3.4383 N.ar      1 UNK         0.0000 
     16 C16        23.4048   41.2182    3.6484 C.ar      1 UNK         0.0000 
     17 N17        23.3416   40.1990    4.5483 N.ar      1 UNK         0.0000 
     18 C18        22.1565   39.9549    5.1862 C.ar      1 UNK         0.0000 
     19 C19        17.7286   41.0151    8.7870 C.3       1 UNK         0.0000 
     20 Cl20       20.6167   41.4952    7.9158 Cl        1 UNK         0.0000 
     21 N21        22.0942   38.8874    6.0945 N.pl3     1 UNK         0.0000 
     22 N22        28.0568   43.6104    3.9321 N.4       1 UNK         0.0000 
     23 C23        27.9976   42.4511    1.7261 C.3       1 UNK         0.0000 
     24 H24        26.0793   40.2606    2.0975 H         1 UNK         0.0000 
     25 H25        25.5374   39.6817    3.6751 H         1 UNK         0.0000 
     26 H26        26.5304   41.6654    4.7796 H         1 UNK         0.0000 
     27 H27        27.7778   40.8079    3.8955 H         1 UNK         0.0000 
     28 H28        25.4751   43.9072    3.6483 H         1 UNK         0.0000 
     29 H29        26.0824   44.3546    2.0811 H         1 UNK         0.0000 
     30 H30        25.1238   42.2418    1.1104 H         1 UNK         0.0000 
     31 H31        23.8669   43.1548    1.9503 H         1 UNK         0.0000 
     32 H32        16.0936   39.9544    6.9083 H         1 UNK         0.0000 
     33 H33        16.6326   39.3650    4.5781 H         1 UNK         0.0000 
     34 H34        18.8818   39.7600    3.6910 H         1 UNK         0.0000 
     35 H35        28.9250   43.1640    4.1754 H         1 UNK         0.0000 
     36 H36        28.9465   41.9493    1.9173 H         1 UNK         0.0000 
     37 H37        28.2119   43.3578    1.1601 H         1 UNK         0.0000 
     38 H38        27.4467   41.7986    1.0477 H         1 UNK         0.0000 
     39 H39        28.2553   44.4865    3.4578 H         1 UNK         0.0000 
     40 H40        22.9522   38.3892    6.3063 H         1 UNK         0.0000 
     41 H41        20.3269   42.4788    3.8471 H         1 UNK         0.0000 
     42 H42        21.2395   38.7067    6.6030 H         1 UNK         0.0000 
     43 H43        16.6613   40.8809    8.9516 H         1 UNK         0.0000 
     44 H44        17.9571   42.0730    8.9359 H         1 UNK         0.0000 
     45 H45        18.2961   40.4417    9.5254 H         1 UNK         0.0000 
     46 H46        27.5603   43.8225    4.7842 H         1 UNK         0.0000 
@<TRIPOS>BOND
     1    1    2 1    
     2    1    6 1    
     3    1   16 1    
     4    2    3 1    
     5    2   24 1    
     6    2   25 1    
     7    3    4 1    
     8    3   26 1    
     9    3   27 1    
    10    4    5 1    
    11    4   22 1    
    12    4   23 1    
    13    5    6 1    
    14    5   28 1    
    15    5   29 1    
    16    6   30 1    
    17    6   31 1    
    18    7    8 ar   
    19    7   12 ar   
    20    7   13 1    
    21    8    9 ar   
    22    8   20 1    
    23    9   10 ar   
    24    9   19 1    
    25   10   11 ar   
    26   10   32 1    
    27   11   12 ar   
    28   11   33 1    
    29   12   34 1    
    30   13   14 ar   
    31   13   18 ar   
    32   14   15 ar   
    33   14   41 1    
    34   15   16 ar   
    35   16   17 ar   
    36   17   18 ar   
    37   18   21 1    
    38   19   43 1    
    39   19   44 1    
    40   19   45 1    
    41   21   40 1    
    42   21   42 1    
    43   22   35 1    
    44   22   39 1    
    45   22   46 1    
    46   23   36 1    
    47   23   37 1    
    48   23   38 1    
@<TRIPOS>SUBSTRUCTURE
     1 UNK         1 GROUP             0       ****    0 ROOT    
