23469
                    3D
 Schrodinger Suite 2021-2.
 41 43  0  0  1  0            999 V2000
   41.2267   17.5989   12.1223 O   0  0  0  0  0  0
   40.3199   17.4392   12.9743 C   0  0  0  0  0  0
   39.1692   17.9141   12.8678 O   0  5  0  0  0  0
   40.6477   16.5733   14.1996 C   0  0  0  0  0  0
   41.8175   15.8185   13.9141 O   0  0  0  0  0  0
   42.1748   14.9064   14.8381 C   0  0  0  0  0  0
   41.7612   13.5465   14.8110 C   0  0  0  0  0  0
   40.6154   12.9498   13.4283 Br  0  0  0  0  0  0
   42.2640   12.7507   15.8102 C   0  0  0  0  0  0
   42.1499   11.3175   16.1351 C   0  0  0  0  0  0
   43.1849   10.7794   16.9404 C   0  0  0  0  0  0
   43.1669    9.4734   17.4265 C   0  0  0  0  0  0
   42.1176    8.6438   17.0558 C   0  0  0  0  0  0
   41.1353    9.0824   16.1575 C   0  0  0  0  0  0
   40.0644    8.1747   15.7563 N   0  0  0  0  0  0
   39.2469    8.3527   14.7181 C   0  0  0  0  0  0
   39.3160    9.3268   13.9744 O   0  0  0  0  0  0
   38.2593    7.2313   14.5872 C   0  0  0  0  0  0
   37.0898    7.4167   13.8596 C   0  0  0  0  0  0
   36.1747    6.3777   13.7384 C   0  0  0  0  0  0
   36.4292    5.1533   14.3446 C   0  0  0  0  0  0
   37.5987    4.9678   15.0722 C   0  0  0  0  0  0
   38.5138    6.0069   15.1935 C   0  0  0  0  0  0
   41.1092   10.4355   15.7128 C   0  0  0  0  0  0
   43.2954   13.7529   16.8349 S   0  0  0  0  0  0
   43.0150   15.1836   15.8880 C   0  0  0  0  0  0
   43.6606   16.4485   16.3083 C   0  0  0  0  0  0
   44.1464   16.5827   17.4534 O   0  0  0  0  0  0
   43.6749   17.4130   15.5127 O   0  5  0  0  0  0
   40.8197   17.2160   15.0631 H   0  0  0  0  0  0
   39.8125   15.9040   14.4055 H   0  0  0  0  0  0
   44.0385   11.3864   17.2052 H   0  0  0  0  0  0
   43.9570    9.1307   18.0783 H   0  0  0  0  0  0
   42.0706    7.6567   17.4883 H   0  0  0  0  0  0
   40.0428    7.3903   16.3922 H   0  0  0  0  0  0
   36.8916    8.3700   13.3876 H   0  0  0  0  0  0
   35.2641    6.5221   13.1719 H   0  0  0  0  0  0
   35.7168    4.3443   14.2502 H   0  0  0  0  0  0
   37.7969    4.0145   15.5443 H   0  0  0  0  0  0
   39.4244    5.8625   15.7600 H   0  0  0  0  0  0
   40.3271   10.8094   15.0680 H   0  0  0  0  0  0
  1  2  2  0  0  0
  2  3  1  0  0  0
  2  4  1  0  0  0
  4  5  1  0  0  0
  4 30  1  0  0  0
  4 31  1  0  0  0
  5  6  1  0  0  0
  6 26  2  0  0  0
  6  7  1  0  0  0
  7  8  1  0  0  0
  7  9  2  0  0  0
  9 10  1  0  0  0
  9 25  1  0  0  0
 10 24  1  0  0  0
 10 11  2  0  0  0
 11 12  1  0  0  0
 11 32  1  0  0  0
 12 13  2  0  0  0
 12 33  1  0  0  0
 13 14  1  0  0  0
 13 34  1  0  0  0
 14 15  1  0  0  0
 14 24  2  0  0  0
 15 16  1  0  0  0
 15 35  1  0  0  0
 16 17  2  0  0  0
 16 18  1  0  0  0
 18 23  1  0  0  0
 18 19  2  0  0  0
 19 20  1  0  0  0
 19 36  1  0  0  0
 20 21  2  0  0  0
 20 37  1  0  0  0
 21 22  1  0  0  0
 21 38  1  0  0  0
 22 23  2  0  0  0
 22 39  1  0  0  0
 23 40  1  0  0  0
 24 41  1  0  0  0
 25 26  1  0  0  0
 26 27  1  0  0  0
 27 28  2  0  0  0
 27 29  1  0  0  0
M  CHG  2   3  -1  29  -1
M  END
> <i_m_stars>
2

> <s_m_entry_id>
519

> <s_m_entry_name>
PTP1B_23469.1

> <r_user_dG.exp>
-7.72301857947764

> <r_m_Molecular_weight>
474.29474

> <s_m_Source_Path>
C:\Users\yujiethinkpad\Desktop\05A\PTP1B

> <s_m_Source_File>
PTP1B_23469.sdf

> <i_m_Source_File_Index>
1

> <s_m_job_name>
align_ligands_7077

> <i_phase_Input_Structure_Number>
20

> <i_phase_Structure_Number>
20

> <r_phase_Similarity_to_Reference>
0.855545924131131

> <i_phase_Reference_Structure>
1

> <s_phase_Alignment_Method>
snapped core

> <s_phase_Alignment_Reason>


> <s_phase_Core_SMARTS>
a1aaaa1-a2aaaaa2

> <s_f3d_frozen_atoms>
25 26 6 7 9 10 24 14 13 12 11 8 41 34 33 32

> <s_m_subgroup_title>
align_ligands_7077

> <s_m_subgroupid>
align_ligands_7077

> <b_m_subgroup_collapsed>
0

$$$$
