23466
                    3D
 Schrodinger Suite 2021-2.
 29 30  0  0  1  0            999 V2000
   40.0663    8.1733   15.7546 N   0  0  0  0  0  0
   41.1353    9.0824   16.1575 C   0  0  0  0  0  0
   42.1176    8.6438   17.0558 C   0  0  0  0  0  0
   43.1669    9.4734   17.4265 C   0  0  0  0  0  0
   43.1849   10.7794   16.9404 C   0  0  0  0  0  0
   42.1499   11.3175   16.1351 C   0  0  0  0  0  0
   42.2640   12.7507   15.8102 C   0  0  0  0  0  0
   43.2954   13.7529   16.8349 S   0  0  0  0  0  0
   43.0150   15.1836   15.8880 C   0  0  0  0  0  0
   43.6606   16.4485   16.3083 C   0  0  0  0  0  0
   44.1464   16.5827   17.4534 O   0  0  0  0  0  0
   43.6749   17.4130   15.5127 O   0  5  0  0  0  0
   42.1748   14.9064   14.8381 C   0  0  0  0  0  0
   41.8175   15.8185   13.9141 O   0  0  0  0  0  0
   40.6477   16.5733   14.1996 C   0  0  0  0  0  0
   40.3199   17.4392   12.9743 C   0  0  0  0  0  0
   41.2267   17.5989   12.1223 O   0  0  0  0  0  0
   39.1692   17.9141   12.8678 O   0  5  0  0  0  0
   41.7612   13.5465   14.8110 C   0  0  0  0  0  0
   40.6154   12.9498   13.4283 Br  0  0  0  0  0  0
   41.1092   10.4355   15.7128 C   0  0  0  0  0  0
   40.0772    7.1886   16.0729 H   0  0  0  0  0  0
   39.2976    8.5136   15.1508 H   0  0  0  0  0  0
   42.0716    7.6486   17.4739 H   0  0  0  0  0  0
   43.9454    9.1018   18.0762 H   0  0  0  0  0  0
   44.0232   11.4183   17.1760 H   0  0  0  0  0  0
   39.8203   15.8956   14.4100 H   0  0  0  0  0  0
   40.8276   17.2077   15.0676 H   0  0  0  0  0  0
   40.3056   10.7702   15.0729 H   0  0  0  0  0  0
  1  2  1  0  0  0
  1 22  1  0  0  0
  1 23  1  0  0  0
  2 21  1  0  0  0
  2  3  2  0  0  0
  3  4  1  0  0  0
  3 24  1  0  0  0
  4  5  2  0  0  0
  4 25  1  0  0  0
  5  6  1  0  0  0
  5 26  1  0  0  0
  6  7  1  0  0  0
  6 21  2  0  0  0
  7 19  2  0  0  0
  7  8  1  0  0  0
  8  9  1  0  0  0
  9 10  1  0  0  0
  9 13  2  0  0  0
 10 11  2  0  0  0
 10 12  1  0  0  0
 13 14  1  0  0  0
 13 19  1  0  0  0
 14 15  1  0  0  0
 15 16  1  0  0  0
 15 27  1  0  0  0
 15 28  1  0  0  0
 16 17  2  0  0  0
 16 18  1  0  0  0
 19 20  1  0  0  0
 21 29  1  0  0  0
M  CHG  2  12  -1  18  -1
M  END
> <i_m_stars>
2

> <s_m_entry_id>
516

> <s_m_entry_name>
PTP1B_23466.1

> <r_user_dG.exp>
-7.84784627805605

> <r_m_Molecular_weight>
370.18541

> <s_m_Source_Path>
C:\Users\yujiethinkpad\Desktop\05A\PTP1B

> <s_m_Source_File>
PTP1B_23466.sdf

> <i_m_Source_File_Index>
1

> <s_m_job_name>
align_ligands_7077

> <i_phase_Input_Structure_Number>
17

> <i_phase_Structure_Number>
17

> <r_phase_Similarity_to_Reference>
0.698541475743806

> <i_phase_Reference_Structure>
1

> <s_phase_Alignment_Method>
snapped core

> <s_phase_Alignment_Reason>


> <s_phase_Core_SMARTS>
a1aaaa1-a2aaaaa2

> <s_f3d_frozen_atoms>
8 9 13 19 7 6 21 2 3 4 5 20 29 24 25 26

> <s_m_subgroup_title>
align_ligands_7077

> <s_m_subgroupid>
align_ligands_7077

> <b_m_subgroup_collapsed>
0

$$$$
