23468
                    3D
 Schrodinger Suite 2021-2.
 37 38  0  0  1  0            999 V2000
   38.8449    6.1541   13.7065 C   0  0  0  0  0  0
   38.2659    7.2268   14.5805 C   0  0  0  0  0  0
   39.2516    8.3496   14.7136 C   0  0  0  0  0  0
   39.3211    9.3236   13.9697 O   0  0  0  0  0  0
   40.0667    8.1731   15.7539 N   0  0  0  0  0  0
   41.1353    9.0824   16.1575 C   0  0  0  0  0  0
   42.1176    8.6438   17.0558 C   0  0  0  0  0  0
   43.1669    9.4734   17.4265 C   0  0  0  0  0  0
   43.1849   10.7794   16.9404 C   0  0  0  0  0  0
   42.1499   11.3175   16.1351 C   0  0  0  0  0  0
   42.2640   12.7507   15.8102 C   0  0  0  0  0  0
   43.2954   13.7529   16.8349 S   0  0  0  0  0  0
   43.0150   15.1836   15.8880 C   0  0  0  0  0  0
   43.6606   16.4485   16.3083 C   0  0  0  0  0  0
   44.1464   16.5827   17.4534 O   0  0  0  0  0  0
   43.6749   17.4130   15.5127 O   0  5  0  0  0  0
   42.1748   14.9064   14.8381 C   0  0  0  0  0  0
   41.8175   15.8185   13.9141 O   0  0  0  0  0  0
   40.6477   16.5733   14.1996 C   0  0  0  0  0  0
   40.3199   17.4392   12.9743 C   0  0  0  0  0  0
   41.2267   17.5989   12.1223 O   0  0  0  0  0  0
   39.1692   17.9141   12.8678 O   0  5  0  0  0  0
   41.7612   13.5465   14.8110 C   0  0  0  0  0  0
   40.6154   12.9498   13.4283 Br  0  0  0  0  0  0
   41.1092   10.4355   15.7128 C   0  0  0  0  0  0
   38.1286    5.3382   13.6098 H   0  0  0  0  0  0
   39.0616    6.5660   12.7209 H   0  0  0  0  0  0
   39.7653    5.7785   14.1537 H   0  0  0  0  0  0
   37.3455    7.6024   14.1334 H   0  0  0  0  0  0
   38.0492    6.8149   15.5662 H   0  0  0  0  0  0
   40.0445    7.3889   16.3899 H   0  0  0  0  0  0
   42.0825    7.6589   17.4951 H   0  0  0  0  0  0
   43.9402    9.1028   18.0830 H   0  0  0  0  0  0
   44.0142   11.4246   17.1912 H   0  0  0  0  0  0
   39.8203   15.8956   14.4100 H   0  0  0  0  0  0
   40.8276   17.2077   15.0676 H   0  0  0  0  0  0
   40.3138   10.7631   15.0593 H   0  0  0  0  0  0
  1  2  1  0  0  0
  1 26  1  0  0  0
  1 27  1  0  0  0
  1 28  1  0  0  0
  2  3  1  0  0  0
  2 29  1  0  0  0
  2 30  1  0  0  0
  3  4  2  0  0  0
  3  5  1  0  0  0
  5  6  1  0  0  0
  5 31  1  0  0  0
  6 25  1  0  0  0
  6  7  2  0  0  0
  7  8  1  0  0  0
  7 32  1  0  0  0
  8  9  2  0  0  0
  8 33  1  0  0  0
  9 10  1  0  0  0
  9 34  1  0  0  0
 10 11  1  0  0  0
 10 25  2  0  0  0
 11 23  2  0  0  0
 11 12  1  0  0  0
 12 13  1  0  0  0
 13 14  1  0  0  0
 13 17  2  0  0  0
 14 15  2  0  0  0
 14 16  1  0  0  0
 17 18  1  0  0  0
 17 23  1  0  0  0
 18 19  1  0  0  0
 19 20  1  0  0  0
 19 35  1  0  0  0
 19 36  1  0  0  0
 20 21  2  0  0  0
 20 22  1  0  0  0
 23 24  1  0  0  0
 25 37  1  0  0  0
M  CHG  2  16  -1  22  -1
M  END
> <i_m_stars>
2

> <s_m_entry_id>
518

> <s_m_entry_name>
PTP1B_23468.1

> <r_user_dG.exp>
-7.75184064198728

> <r_m_Molecular_weight>
426.25014

> <s_m_Source_Path>
C:\Users\yujiethinkpad\Desktop\05A\PTP1B

> <s_m_Source_File>
PTP1B_23468.sdf

> <i_m_Source_File_Index>
1

> <s_m_job_name>
align_ligands_7077

> <i_phase_Input_Structure_Number>
19

> <i_phase_Structure_Number>
19

> <r_phase_Similarity_to_Reference>
0.829964450637652

> <i_phase_Reference_Structure>
1

> <s_phase_Alignment_Method>
snapped core

> <s_phase_Alignment_Reason>


> <s_phase_Core_SMARTS>
a1aaaa1-a2aaaaa2

> <s_f3d_frozen_atoms>
12 13 17 23 11 10 25 6 7 8 9 24 37 32 33 34

> <s_m_subgroup_title>
align_ligands_7077

> <s_m_subgroupid>
align_ligands_7077

> <b_m_subgroup_collapsed>
0

$$$$
