23471
                    3D
 Schrodinger Suite 2021-2.
 35 36  0  0  1  0            999 V2000
   36.8429    7.7195   14.5614 C   0  0  0  0  0  0
   38.1133    7.4452   15.0253 O   0  0  0  0  0  0
   38.8666    8.5376   15.3161 C   0  0  0  0  0  0
   38.4903    9.6979   15.1922 O   0  0  0  0  0  0
   40.0675    8.1725   15.7532 N   0  0  0  0  0  0
   41.1353    9.0824   16.1575 C   0  0  0  0  0  0
   42.1176    8.6438   17.0558 C   0  0  0  0  0  0
   43.1669    9.4734   17.4265 C   0  0  0  0  0  0
   43.1849   10.7794   16.9404 C   0  0  0  0  0  0
   42.1499   11.3175   16.1351 C   0  0  0  0  0  0
   42.2640   12.7507   15.8102 C   0  0  0  0  0  0
   43.2954   13.7529   16.8349 S   0  0  0  0  0  0
   43.0150   15.1836   15.8880 C   0  0  0  0  0  0
   43.6606   16.4485   16.3083 C   0  0  0  0  0  0
   44.1464   16.5827   17.4534 O   0  0  0  0  0  0
   43.6749   17.4130   15.5127 O   0  5  0  0  0  0
   42.1748   14.9064   14.8381 C   0  0  0  0  0  0
   41.8175   15.8185   13.9141 O   0  0  0  0  0  0
   40.6477   16.5733   14.1996 C   0  0  0  0  0  0
   40.3199   17.4392   12.9743 C   0  0  0  0  0  0
   41.2267   17.5989   12.1223 O   0  0  0  0  0  0
   39.1692   17.9141   12.8678 O   0  5  0  0  0  0
   41.7612   13.5465   14.8110 C   0  0  0  0  0  0
   40.6154   12.9498   13.4283 Br  0  0  0  0  0  0
   41.1092   10.4355   15.7128 C   0  0  0  0  0  0
   36.3207    6.7847   14.3576 H   0  0  0  0  0  0
   36.2950    8.2848   15.3153 H   0  0  0  0  0  0
   36.9094    8.3057   13.6448 H   0  0  0  0  0  0
   40.3881    7.2222   15.8593 H   0  0  0  0  0  0
   42.0992    7.6515   17.4779 H   0  0  0  0  0  0
   43.9470    9.0988   18.0726 H   0  0  0  0  0  0
   44.0248   11.4180   17.1721 H   0  0  0  0  0  0
   39.8203   15.8956   14.4100 H   0  0  0  0  0  0
   40.8276   17.2077   15.0676 H   0  0  0  0  0  0
   40.3019   10.7686   15.0769 H   0  0  0  0  0  0
  1  2  1  0  0  0
  1 26  1  0  0  0
  1 27  1  0  0  0
  1 28  1  0  0  0
  2  3  1  0  0  0
  3  4  2  0  0  0
  3  5  1  0  0  0
  5  6  1  0  0  0
  5 29  1  0  0  0
  6 25  1  0  0  0
  6  7  2  0  0  0
  7  8  1  0  0  0
  7 30  1  0  0  0
  8  9  2  0  0  0
  8 31  1  0  0  0
  9 10  1  0  0  0
  9 32  1  0  0  0
 10 11  1  0  0  0
 10 25  2  0  0  0
 11 23  2  0  0  0
 11 12  1  0  0  0
 12 13  1  0  0  0
 13 14  1  0  0  0
 13 17  2  0  0  0
 14 15  2  0  0  0
 14 16  1  0  0  0
 17 18  1  0  0  0
 17 23  1  0  0  0
 18 19  1  0  0  0
 19 20  1  0  0  0
 19 33  1  0  0  0
 19 34  1  0  0  0
 20 21  2  0  0  0
 20 22  1  0  0  0
 23 24  1  0  0  0
 25 35  1  0  0  0
M  CHG  2  16  -1  22  -1
M  END
> <i_m_stars>
2

> <s_m_entry_id>
521

> <s_m_entry_name>
PTP1B_23471.1

> <r_user_dG.exp>
-7.75184064198728

> <r_m_Molecular_weight>
428.22245

> <s_m_Source_Path>
C:\Users\yujiethinkpad\Desktop\05A\PTP1B

> <s_m_Source_File>
PTP1B_23471.sdf

> <i_m_Source_File_Index>
1

> <s_m_job_name>
align_ligands_7077

> <i_phase_Input_Structure_Number>
22

> <i_phase_Structure_Number>
22

> <r_phase_Similarity_to_Reference>
0.783585536018871

> <i_phase_Reference_Structure>
1

> <s_phase_Alignment_Method>
snapped core

> <s_phase_Alignment_Reason>


> <s_phase_Core_SMARTS>
a1aaaa1-a2aaaaa2

> <s_f3d_frozen_atoms>
12 13 17 23 11 10 25 6 7 8 9 24 35 30 31 32

> <s_m_subgroup_title>
align_ligands_7077

> <s_m_subgroupid>
align_ligands_7077

> <b_m_subgroup_collapsed>
0

$$$$
