23470
                    3D
 Schrodinger Suite 2021-2.
 42 43  0  0  1  0            999 V2000
   36.8905    5.8603   13.4028 C   0  0  0  0  0  0
   37.3525    7.2811   13.5364 C   0  0  0  0  0  0
   36.1882    8.1531   13.9027 C   0  0  0  0  0  0
   38.3709    7.3657   14.5791 N   0  0  0  0  0  0
   39.2541    8.3491   14.7172 C   0  0  0  0  0  0
   39.3131    9.3167   13.9672 O   0  0  0  0  0  0
   40.0666    8.1732   15.7540 N   0  0  0  0  0  0
   41.1353    9.0824   16.1575 C   0  0  0  0  0  0
   42.1176    8.6438   17.0558 C   0  0  0  0  0  0
   43.1669    9.4734   17.4265 C   0  0  0  0  0  0
   43.1849   10.7794   16.9404 C   0  0  0  0  0  0
   42.1499   11.3175   16.1351 C   0  0  0  0  0  0
   42.2640   12.7507   15.8102 C   0  0  0  0  0  0
   43.2954   13.7529   16.8349 S   0  0  0  0  0  0
   43.0150   15.1836   15.8880 C   0  0  0  0  0  0
   43.6606   16.4485   16.3083 C   0  0  0  0  0  0
   44.1464   16.5827   17.4534 O   0  0  0  0  0  0
   43.6749   17.4130   15.5127 O   0  5  0  0  0  0
   42.1748   14.9064   14.8381 C   0  0  0  0  0  0
   41.8175   15.8185   13.9141 O   0  0  0  0  0  0
   40.6477   16.5733   14.1996 C   0  0  0  0  0  0
   40.3199   17.4392   12.9743 C   0  0  0  0  0  0
   41.2267   17.5989   12.1223 O   0  0  0  0  0  0
   39.1692   17.9141   12.8678 O   0  5  0  0  0  0
   41.7612   13.5465   14.8110 C   0  0  0  0  0  0
   40.6154   12.9498   13.4283 Br  0  0  0  0  0  0
   41.1092   10.4355   15.7128 C   0  0  0  0  0  0
   36.1301    5.7971   12.6244 H   0  0  0  0  0  0
   37.7365    5.2267   13.1366 H   0  0  0  0  0  0
   36.4691    5.5247   14.3504 H   0  0  0  0  0  0
   37.7738    7.6168   12.5888 H   0  0  0  0  0  0
   35.4279    8.0899   13.1243 H   0  0  0  0  0  0
   35.7668    7.8174   14.8503 H   0  0  0  0  0  0
   36.5239    9.1856   13.9998 H   0  0  0  0  0  0
   38.2961    6.5580   15.1772 H   0  0  0  0  0  0
   40.0446    7.3905   16.3887 H   0  0  0  0  0  0
   42.0843    7.6592   17.4955 H   0  0  0  0  0  0
   43.9404    9.1024   18.0826 H   0  0  0  0  0  0
   44.0140   11.4251   17.1907 H   0  0  0  0  0  0
   39.8203   15.8956   14.4100 H   0  0  0  0  0  0
   40.8276   17.2077   15.0676 H   0  0  0  0  0  0
   40.3133   10.7641   15.0600 H   0  0  0  0  0  0
  1  2  1  0  0  0
  1 28  1  0  0  0
  1 29  1  0  0  0
  1 30  1  0  0  0
  2  3  1  0  0  0
  2  4  1  0  0  0
  2 31  1  0  0  0
  3 32  1  0  0  0
  3 33  1  0  0  0
  3 34  1  0  0  0
  4  5  1  0  0  0
  4 35  1  0  0  0
  5  6  2  0  0  0
  5  7  1  0  0  0
  7  8  1  0  0  0
  7 36  1  0  0  0
  8 27  1  0  0  0
  8  9  2  0  0  0
  9 10  1  0  0  0
  9 37  1  0  0  0
 10 11  2  0  0  0
 10 38  1  0  0  0
 11 12  1  0  0  0
 11 39  1  0  0  0
 12 13  1  0  0  0
 12 27  2  0  0  0
 13 25  2  0  0  0
 13 14  1  0  0  0
 14 15  1  0  0  0
 15 16  1  0  0  0
 15 19  2  0  0  0
 16 17  2  0  0  0
 16 18  1  0  0  0
 19 20  1  0  0  0
 19 25  1  0  0  0
 20 21  1  0  0  0
 21 22  1  0  0  0
 21 40  1  0  0  0
 21 41  1  0  0  0
 22 23  2  0  0  0
 22 24  1  0  0  0
 25 26  1  0  0  0
 27 42  1  0  0  0
M  CHG  2  18  -1  24  -1
M  END
> <i_m_stars>
2

> <s_m_entry_id>
520

> <s_m_entry_name>
PTP1B_23470.1

> <r_user_dG.exp>
-7.72301857947764

> <r_m_Molecular_weight>
455.2919

> <s_m_Source_Path>
C:\Users\yujiethinkpad\Desktop\05A\PTP1B

> <s_m_Source_File>
PTP1B_23470.sdf

> <i_m_Source_File_Index>
1

> <s_m_job_name>
align_ligands_7077

> <i_phase_Input_Structure_Number>
21

> <i_phase_Structure_Number>
21

> <r_phase_Similarity_to_Reference>
0.848600095686425

> <i_phase_Reference_Structure>
1

> <s_phase_Alignment_Method>
snapped core

> <s_phase_Alignment_Reason>


> <s_phase_Core_SMARTS>
a1aaaa1-a2aaaaa2

> <s_f3d_frozen_atoms>
14 15 19 25 13 12 27 8 9 10 11 26 42 37 38 39

> <s_m_subgroup_title>
align_ligands_7077

> <s_m_subgroupid>
align_ligands_7077

> <b_m_subgroup_collapsed>
0

$$$$
