23476
                    3D
 Schrodinger Suite 2021-2.
 48 50  0  0  1  0            999 V2000
   41.2267   17.5989   12.1223 O   0  0  0  0  0  0
   40.3199   17.4392   12.9743 C   0  0  0  0  0  0
   39.1692   17.9141   12.8678 O   0  5  0  0  0  0
   40.6477   16.5733   14.1996 C   0  0  0  0  0  0
   41.8175   15.8185   13.9141 O   0  0  0  0  0  0
   42.1748   14.9064   14.8381 C   0  0  0  0  0  0
   41.7612   13.5465   14.8110 C   0  0  0  0  0  0
   40.6154   12.9498   13.4283 Br  0  0  0  0  0  0
   42.2640   12.7507   15.8102 C   0  0  0  0  0  0
   42.1499   11.3175   16.1351 C   0  0  0  0  0  0
   43.1849   10.7794   16.9404 C   0  0  0  0  0  0
   43.1669    9.4734   17.4265 C   0  0  0  0  0  0
   42.1176    8.6438   17.0558 C   0  0  0  0  0  0
   41.1353    9.0824   16.1575 C   0  0  0  0  0  0
   40.0671    8.1735   15.7520 N   0  0  0  0  0  0
   39.0409    8.6243   14.8164 C   0  0  0  0  0  0
   39.1551    7.8041   13.5140 C   0  0  0  0  0  0
   38.4117    6.4548   13.4873 C   0  0  0  0  0  0
   36.9201    6.5751   13.1152 C   0  0  0  0  0  0
   36.0100    7.2085   14.1837 C   0  0  0  0  0  0
   36.4238    8.6103   14.6748 C   0  0  0  0  0  0
   37.6869    8.6107   15.5572 C   0  0  0  0  0  0
   41.1092   10.4355   15.7128 C   0  0  0  0  0  0
   43.2954   13.7529   16.8349 S   0  0  0  0  0  0
   43.0150   15.1836   15.8880 C   0  0  0  0  0  0
   43.6606   16.4485   16.3083 C   0  0  0  0  0  0
   44.1464   16.5827   17.4534 O   0  0  0  0  0  0
   43.6749   17.4130   15.5127 O   0  5  0  0  0  0
   39.8125   15.9040   14.4055 H   0  0  0  0  0  0
   40.8197   17.2160   15.0631 H   0  0  0  0  0  0
   44.0353   11.3886   17.2101 H   0  0  0  0  0  0
   43.9565    9.1296   18.0781 H   0  0  0  0  0  0
   42.0612    7.6482   17.4715 H   0  0  0  0  0  0
   40.0373    7.2096   16.1276 H   0  0  0  0  0  0
   39.3081    9.6573   14.5857 H   0  0  0  0  0  0
   38.8145    8.4133   12.6746 H   0  0  0  0  0  0
   40.2151    7.6306   13.3193 H   0  0  0  0  0  0
   38.8883    5.8227   12.7357 H   0  0  0  0  0  0
   38.5345    5.9266   14.4345 H   0  0  0  0  0  0
   36.8241    7.1338   12.1823 H   0  0  0  0  0  0
   36.5364    5.5780   12.8918 H   0  0  0  0  0  0
   34.9995    7.2678   13.7754 H   0  0  0  0  0  0
   35.9336    6.5338   15.0385 H   0  0  0  0  0  0
   36.5383    9.2982   13.8352 H   0  0  0  0  0  0
   35.5984    9.0079   15.2684 H   0  0  0  0  0  0
   37.6521    7.7490   16.2265 H   0  0  0  0  0  0
   37.6586    9.4781   16.2193 H   0  0  0  0  0  0
   40.3469   10.8342   15.0659 H   0  0  0  0  0  0
  1  2  2  0  0  0
  2  3  1  0  0  0
  2  4  1  0  0  0
  4  5  1  0  0  0
  4 29  1  0  0  0
  4 30  1  0  0  0
  5  6  1  0  0  0
  6 25  2  0  0  0
  6  7  1  0  0  0
  7  8  1  0  0  0
  7  9  2  0  0  0
  9 10  1  0  0  0
  9 24  1  0  0  0
 10 23  1  0  0  0
 10 11  2  0  0  0
 11 12  1  0  0  0
 11 31  1  0  0  0
 12 13  2  0  0  0
 12 32  1  0  0  0
 13 14  1  0  0  0
 13 33  1  0  0  0
 14 15  1  0  0  0
 14 23  2  0  0  0
 15 16  1  0  0  0
 15 34  1  0  0  0
 16 22  1  0  0  0
 16 17  1  0  0  0
 16 35  1  0  0  0
 17 18  1  0  0  0
 17 36  1  0  0  0
 17 37  1  0  0  0
 18 19  1  0  0  0
 18 38  1  0  0  0
 18 39  1  0  0  0
 19 20  1  0  0  0
 19 40  1  0  0  0
 19 41  1  0  0  0
 20 21  1  0  0  0
 20 42  1  0  0  0
 20 43  1  0  0  0
 21 22  1  0  0  0
 21 44  1  0  0  0
 21 45  1  0  0  0
 22 46  1  0  0  0
 22 47  1  0  0  0
 23 48  1  0  0  0
 24 25  1  0  0  0
 25 26  1  0  0  0
 26 27  2  0  0  0
 26 28  1  0  0  0
M  CHG  2   3  -1  28  -1
M  END
> <i_m_stars>
2

> <s_m_entry_id>
504

> <s_m_entry_name>
PTP1B_23476.1

> <r_user_dG.exp>
-9.4138211030936

> <r_m_Molecular_weight>
466.3591

> <s_m_Source_Path>
C:\Users\yujiethinkpad\Desktop\05A\PTP1B

> <s_m_Source_File>
PTP1B_23476.sdf

> <i_m_Source_File_Index>
1

> <s_m_job_name>
align_ligands_7077

> <i_phase_Input_Structure_Number>
5

> <i_phase_Structure_Number>
5

> <r_phase_Similarity_to_Reference>
0.898450814277114

> <i_phase_Reference_Structure>
1

> <s_phase_Alignment_Method>
snapped core

> <s_phase_Alignment_Reason>


> <s_phase_Core_SMARTS>
a1aaaa1-a2aaaaa2

> <s_f3d_frozen_atoms>
24 25 6 7 9 10 23 14 13 12 11 8 48 33 32 31

> <s_m_subgroup_title>
align_ligands_7077

> <s_m_subgroupid>
align_ligands_7077

> <b_m_subgroup_collapsed>
0

$$$$
