23486
                    3D
 Schrodinger Suite 2021-2.
 60 63  0  0  1  0            999 V2000
   41.2267   17.5989   12.1223 O   0  0  0  0  0  0
   40.3199   17.4392   12.9743 C   0  0  0  0  0  0
   39.1692   17.9141   12.8678 O   0  5  0  0  0  0
   40.6477   16.5733   14.1996 C   0  0  0  0  0  0
   41.8175   15.8185   13.9141 O   0  0  0  0  0  0
   42.1748   14.9064   14.8381 C   0  0  0  0  0  0
   41.7612   13.5465   14.8110 C   0  0  0  0  0  0
   40.6940   13.0117   13.5958 Cl  0  0  0  0  0  0
   42.2640   12.7507   15.8102 C   0  0  0  0  0  0
   42.1499   11.3175   16.1351 C   0  0  0  0  0  0
   43.1849   10.7794   16.9404 C   0  0  0  0  0  0
   43.1669    9.4734   17.4265 C   0  0  0  0  0  0
   42.1176    8.6438   17.0558 C   0  0  0  0  0  0
   41.1353    9.0824   16.1575 C   0  0  0  0  0  0
   40.2708    8.0465   15.8059 N   0  0  0  0  0  0
   39.3102    7.9875   14.7344 C   0  0  0  0  0  0
   39.3849    6.5555   14.1124 C   0  0  0  0  0  0
   38.2175    6.2204   13.1820 C   0  0  0  0  0  0
   36.9019    6.3977   13.9443 N   0  0  2  0  0  0
   35.5519    6.0225   12.9126 S   0  0  0  0  0  0
   35.6129    4.5895   12.6048 O   0  0  0  0  0  0
   35.5072    7.0365   11.8533 O   0  0  0  0  0  0
   34.1455    6.2869   13.9713 C   0  0  0  0  0  0
   34.2335    5.3726   15.1571 C   0  0  0  0  0  0
   35.4757    4.9812   15.6422 C   0  0  0  0  0  0
   35.5573    4.1340   16.7410 C   0  0  0  0  0  0
   34.3965    3.6783   17.3547 C   0  0  0  0  0  0
   33.1543    4.0698   16.8697 C   0  0  0  0  0  0
   33.0728    4.9169   15.7709 C   0  0  0  0  0  0
   36.7742    7.8396   14.4832 C   0  0  0  0  0  0
   37.9440    8.2435   15.3803 C   0  0  0  0  0  0
   41.1092   10.4355   15.7128 C   0  0  0  0  0  0
   43.2954   13.7529   16.8349 S   0  0  0  0  0  0
   43.0150   15.1836   15.8880 C   0  0  0  0  0  0
   43.6606   16.4485   16.3083 C   0  0  0  0  0  0
   44.1464   16.5827   17.4534 O   0  0  0  0  0  0
   43.6749   17.4130   15.5127 O   0  5  0  0  0  0
   39.8125   15.9040   14.4055 H   0  0  0  0  0  0
   40.8197   17.2160   15.0631 H   0  0  0  0  0  0
   44.0363   11.3876   17.2093 H   0  0  0  0  0  0
   43.9582    9.1280   18.0753 H   0  0  0  0  0  0
   42.0655    7.6461   17.4673 H   0  0  0  0  0  0
   40.3338    7.1919   16.3404 H   0  0  0  0  0  0
   39.5824    8.7807   14.0382 H   0  0  0  0  0  0
   40.3190    6.4335   13.5641 H   0  0  0  0  0  0
   39.4077    5.8164   14.9132 H   0  0  0  0  0  0
   38.2145    6.8697   12.3065 H   0  0  0  0  0  0
   38.3180    5.2050   12.7985 H   0  0  0  0  0  0
   34.1360    7.3226   14.3109 H   0  0  0  0  0  0
   33.2299    6.0775   13.4182 H   0  0  0  0  0  0
   36.3794    5.3360   15.1643 H   0  0  0  0  0  0
   36.5244    3.8293   17.1186 H   0  0  0  0  0  0
   34.4600    3.0188   18.2102 H   0  0  0  0  0  0
   32.2506    3.7150   17.3475 H   0  0  0  0  0  0
   32.1057    5.2217   15.3933 H   0  0  0  0  0  0
   36.6979    8.5068   13.6246 H   0  0  0  0  0  0
   35.8351    7.9458   15.0263 H   0  0  0  0  0  0
   37.8783    7.6874   16.3154 H   0  0  0  0  0  0
   37.8479    9.2955   15.6487 H   0  0  0  0  0  0
   40.3520   10.8366   15.0619 H   0  0  0  0  0  0
  1  2  2  0  0  0
  2  3  1  0  0  0
  2  4  1  0  0  0
  4  5  1  0  0  0
  4 38  1  0  0  0
  4 39  1  0  0  0
  5  6  1  0  0  0
  6 34  2  0  0  0
  6  7  1  0  0  0
  7  8  1  0  0  0
  7  9  2  0  0  0
  9 10  1  0  0  0
  9 33  1  0  0  0
 10 32  1  0  0  0
 10 11  2  0  0  0
 11 12  1  0  0  0
 11 40  1  0  0  0
 12 13  2  0  0  0
 12 41  1  0  0  0
 13 14  1  0  0  0
 13 42  1  0  0  0
 14 15  1  0  0  0
 14 32  2  0  0  0
 15 16  1  0  0  0
 15 43  1  0  0  0
 16 31  1  0  0  0
 16 17  1  0  0  0
 16 44  1  0  0  0
 17 18  1  0  0  0
 17 45  1  0  0  0
 17 46  1  0  0  0
 18 19  1  0  0  0
 18 47  1  0  0  0
 18 48  1  0  0  0
 19 20  1  0  0  0
 19 30  1  0  0  0
 20 21  2  0  0  0
 20 22  2  0  0  0
 20 23  1  0  0  0
 23 24  1  0  0  0
 23 49  1  0  0  0
 23 50  1  0  0  0
 24 29  1  0  0  0
 24 25  2  0  0  0
 25 26  1  0  0  0
 25 51  1  0  0  0
 26 27  2  0  0  0
 26 52  1  0  0  0
 27 28  1  0  0  0
 27 53  1  0  0  0
 28 29  2  0  0  0
 28 54  1  0  0  0
 29 55  1  0  0  0
 30 31  1  0  0  0
 30 56  1  0  0  0
 30 57  1  0  0  0
 31 58  1  0  0  0
 31 59  1  0  0  0
 32 60  1  0  0  0
 33 34  1  0  0  0
 34 35  1  0  0  0
 35 36  2  0  0  0
 35 37  1  0  0  0
M  CHG  2   3  -1  37  -1
M  END
> <i_m_stars>
2

> <s_m_entry_id>
512

> <s_m_entry_name>
PTP1B_23486.1

> <r_user_dG.exp>
-12.4697848806838

> <r_m_Molecular_weight>
563.05226

> <s_m_Source_Path>
C:\Users\yujiethinkpad\Desktop\05A\PTP1B

> <s_m_Source_File>
PTP1B_23486.sdf

> <i_m_Source_File_Index>
1

> <s_m_job_name>
align_ligands_7077

> <i_phase_Input_Structure_Number>
13

> <i_phase_Structure_Number>
13

> <r_phase_Similarity_to_Reference>
0.697758786118388

> <i_phase_Reference_Structure>
1

> <s_phase_Alignment_Method>
snapped core

> <s_phase_Alignment_Reason>


> <s_phase_Core_SMARTS>
a1aaaa1-a2aa(aaa2)AA3AAAAA3

> <s_f3d_frozen_atoms>
33 34 6 7 9 10 32 14 13 12 11 15 16 17 18 19 30 31 8 60 42 41 40 43 44 45 46 47 48 56 57 58 59

> <s_m_subgroup_title>
align_ligands_7077

> <s_m_subgroupid>
align_ligands_7077

> <b_m_subgroup_collapsed>
0

$$$$
