23485
                    3D
 Schrodinger Suite 2021-2.
 63 66  0  0  1  0            999 V2000
   40.8483   13.0398   13.7340 C   0  0  0  0  0  0
   41.7612   13.5465   14.8110 C   0  0  0  0  0  0
   42.1748   14.9064   14.8381 C   0  0  0  0  0  0
   41.8175   15.8185   13.9141 O   0  0  0  0  0  0
   40.6477   16.5733   14.1996 C   0  0  0  0  0  0
   40.3199   17.4392   12.9743 C   0  0  0  0  0  0
   41.2267   17.5989   12.1223 O   0  0  0  0  0  0
   39.1692   17.9141   12.8678 O   0  5  0  0  0  0
   43.0150   15.1836   15.8880 C   0  0  0  0  0  0
   43.6606   16.4485   16.3083 C   0  0  0  0  0  0
   44.1464   16.5827   17.4534 O   0  0  0  0  0  0
   43.6749   17.4130   15.5127 O   0  5  0  0  0  0
   43.2954   13.7529   16.8349 S   0  0  0  0  0  0
   42.2640   12.7507   15.8102 C   0  0  0  0  0  0
   42.1499   11.3175   16.1351 C   0  0  0  0  0  0
   43.1849   10.7794   16.9404 C   0  0  0  0  0  0
   43.1669    9.4734   17.4265 C   0  0  0  0  0  0
   42.1176    8.6438   17.0558 C   0  0  0  0  0  0
   41.1353    9.0824   16.1575 C   0  0  0  0  0  0
   40.2708    8.0465   15.8059 N   0  0  0  0  0  0
   39.3102    7.9875   14.7344 C   0  0  0  0  0  0
   39.3849    6.5555   14.1124 C   0  0  0  0  0  0
   38.2175    6.2204   13.1820 C   0  0  0  0  0  0
   36.9019    6.3977   13.9443 N   0  0  2  0  0  0
   35.5510    6.0188   12.9152 S   0  0  0  0  0  0
   36.0865    5.4902   11.6559 O   0  0  0  0  0  0
   34.6368    7.1658   12.9420 O   0  0  0  0  0  0
   34.7545    4.6749   13.7683 C   0  0  0  0  0  0
   35.5101    4.3632   15.0260 C   0  0  0  0  0  0
   36.8811    4.5834   15.0857 C   0  0  0  0  0  0
   37.5812    4.2947   16.2511 C   0  0  0  0  0  0
   36.9103    3.7857   17.3568 C   0  0  0  0  0  0
   35.5394    3.5655   17.2971 C   0  0  0  0  0  0
   34.8392    3.8543   16.1317 C   0  0  0  0  0  0
   36.7742    7.8396   14.4832 C   0  0  0  0  0  0
   37.9440    8.2435   15.3803 C   0  0  0  0  0  0
   41.1092   10.4355   15.7128 C   0  0  0  0  0  0
   40.5881   13.8586   13.0633 H   0  0  0  0  0  0
   41.3520   12.2545   13.1705 H   0  0  0  0  0  0
   39.9413   12.6381   14.1859 H   0  0  0  0  0  0
   39.8203   15.8956   14.4100 H   0  0  0  0  0  0
   40.8276   17.2077   15.0676 H   0  0  0  0  0  0
   44.0357   11.3884   17.2085 H   0  0  0  0  0  0
   43.9576    9.1285   18.0763 H   0  0  0  0  0  0
   42.0630    7.6475   17.4704 H   0  0  0  0  0  0
   40.2608    7.2313   16.4021 H   0  0  0  0  0  0
   39.5824    8.7807   14.0382 H   0  0  0  0  0  0
   40.3190    6.4335   13.5641 H   0  0  0  0  0  0
   39.4077    5.8164   14.9132 H   0  0  0  0  0  0
   38.2145    6.8697   12.3065 H   0  0  0  0  0  0
   38.3180    5.2050   12.7985 H   0  0  0  0  0  0
   33.7325    4.9587   14.0193 H   0  0  0  0  0  0
   34.7397    3.7945   13.1258 H   0  0  0  0  0  0
   37.4034    4.9796   14.2249 H   0  0  0  0  0  0
   38.6486    4.4661   16.2975 H   0  0  0  0  0  0
   37.4554    3.5609   18.2641 H   0  0  0  0  0  0
   35.0171    3.1693   18.1579 H   0  0  0  0  0  0
   33.7719    3.6829   16.0853 H   0  0  0  0  0  0
   36.6979    8.5068   13.6246 H   0  0  0  0  0  0
   35.8351    7.9458   15.0263 H   0  0  0  0  0  0
   37.8783    7.6874   16.3154 H   0  0  0  0  0  0
   37.8479    9.2955   15.6487 H   0  0  0  0  0  0
   40.3501   10.8368   15.0654 H   0  0  0  0  0  0
  1  2  1  0  0  0
  1 38  1  0  0  0
  1 39  1  0  0  0
  1 40  1  0  0  0
  2 14  2  0  0  0
  2  3  1  0  0  0
  3  4  1  0  0  0
  3  9  2  0  0  0
  4  5  1  0  0  0
  5  6  1  0  0  0
  5 41  1  0  0  0
  5 42  1  0  0  0
  6  7  2  0  0  0
  6  8  1  0  0  0
  9 10  1  0  0  0
  9 13  1  0  0  0
 10 11  2  0  0  0
 10 12  1  0  0  0
 13 14  1  0  0  0
 14 15  1  0  0  0
 15 37  1  0  0  0
 15 16  2  0  0  0
 16 17  1  0  0  0
 16 43  1  0  0  0
 17 18  2  0  0  0
 17 44  1  0  0  0
 18 19  1  0  0  0
 18 45  1  0  0  0
 19 20  1  0  0  0
 19 37  2  0  0  0
 20 21  1  0  0  0
 20 46  1  0  0  0
 21 36  1  0  0  0
 21 22  1  0  0  0
 21 47  1  0  0  0
 22 23  1  0  0  0
 22 48  1  0  0  0
 22 49  1  0  0  0
 23 24  1  0  0  0
 23 50  1  0  0  0
 23 51  1  0  0  0
 24 25  1  0  0  0
 24 35  1  0  0  0
 25 26  2  0  0  0
 25 27  2  0  0  0
 25 28  1  0  0  0
 28 29  1  0  0  0
 28 52  1  0  0  0
 28 53  1  0  0  0
 29 34  1  0  0  0
 29 30  2  0  0  0
 30 31  1  0  0  0
 30 54  1  0  0  0
 31 32  2  0  0  0
 31 55  1  0  0  0
 32 33  1  0  0  0
 32 56  1  0  0  0
 33 34  2  0  0  0
 33 57  1  0  0  0
 34 58  1  0  0  0
 35 36  1  0  0  0
 35 59  1  0  0  0
 35 60  1  0  0  0
 36 61  1  0  0  0
 36 62  1  0  0  0
 37 63  1  0  0  0
M  CHG  2   8  -1  12  -1
M  END
> <i_m_stars>
2

> <s_m_entry_id>
511

> <s_m_entry_name>
PTP1B_23485.1

> <r_user_dG.exp>
-11.0135614094467

> <r_m_Molecular_weight>
542.63432

> <s_m_Source_Path>
C:\Users\yujiethinkpad\Desktop\05A\PTP1B

> <s_m_Source_File>
PTP1B_23485.sdf

> <i_m_Source_File_Index>
1

> <s_m_job_name>
align_ligands_7077

> <i_phase_Input_Structure_Number>
12

> <i_phase_Structure_Number>
12

> <r_phase_Similarity_to_Reference>
0.683800518464156

> <i_phase_Reference_Structure>
1

> <s_phase_Alignment_Method>
snapped core

> <s_phase_Alignment_Reason>


> <s_phase_Core_SMARTS>
a1aaaa1-a2aa(aaa2)AA3AAAAA3

> <s_f3d_frozen_atoms>
13 9 3 2 14 15 37 19 18 17 16 20 21 22 23 24 35 36 63 45 44 43 46 47 48 49 50 51 59 60 61 62

> <s_m_subgroup_title>
align_ligands_7077

> <s_m_subgroupid>
align_ligands_7077

> <b_m_subgroup_collapsed>
0

$$$$
