20670(2qbs)
                    3D
 Schrodinger Suite 2021-2.
 45 47  0  0  1  0            999 V2000
   43.4380   13.7691   16.7975 S   0  0  0  0  0  0
   43.2147   15.1974   15.7986 C   0  0  0  0  0  0
   42.3417   14.9658   14.7694 C   0  0  0  0  0  0
   41.8797   13.6286   14.7999 C   0  0  0  0  0  0
   42.3434   12.8362   15.8198 C   0  0  0  0  0  0
   43.9691   16.3931   16.1959 C   0  0  0  0  0  0
   44.5707   16.3980   17.2924 O   0  0  0  0  0  0
   43.9914   17.3937   15.4429 O   0  5  0  0  0  0
   42.0517   11.4411   16.1543 C   0  0  0  0  0  0
   40.7641   10.9175   15.9384 C   0  0  0  0  0  0
   40.4657    9.5619   16.1600 C   0  0  0  0  0  0
   41.4630    8.7110   16.6820 C   0  0  0  0  0  0
   42.7421    9.2297   16.9580 C   0  0  0  0  0  0
   43.0392   10.5788   16.6795 C   0  0  0  0  0  0
   40.7101   13.0475   13.4574 Br  0  0  0  0  0  0
   42.0097   15.8740   13.8207 O   0  0  0  0  0  0
   40.8150   16.6192   14.0466 C   0  0  0  0  0  0
   40.4946   17.4459   12.7894 C   0  0  0  0  0  0
   41.3934   17.5536   11.9187 O   0  5  0  0  0  0
   39.3559   17.9551   12.6780 O   0  0  0  0  0  0
   39.1687    9.1312   15.8451 N   0  0  0  0  0  0
   38.9105    7.7543   15.4257 C   0  0  0  0  0  0
   37.3806    7.5367   15.3272 C   0  0  0  0  0  0
   37.0148    6.1372   14.7948 C   0  0  0  0  0  0
   37.7095    5.8387   13.4539 C   0  0  0  0  0  0
   39.2331    6.0217   13.5573 C   0  0  0  0  0  0
   39.5979    7.4262   14.0768 C   0  0  0  0  0  0
   39.9956   11.5704   15.5611 H   0  0  0  0  0  0
   41.2554    7.6740   16.8925 H   0  0  0  0  0  0
   43.5067    8.5822   17.3552 H   0  0  0  0  0  0
   44.0348   10.9475   16.8737 H   0  0  0  0  0  0
   40.9421   17.2882   14.9015 H   0  0  0  0  0  0
   39.9746   15.9580   14.2520 H   0  0  0  0  0  0
   38.5876    9.8249   15.3891 H   0  0  0  0  0  0
   39.2982    7.0763   16.1882 H   0  0  0  0  0  0
   36.9223    7.6869   16.3052 H   0  0  0  0  0  0
   36.9483    8.2841   14.6624 H   0  0  0  0  0  0
   37.3055    5.3859   15.5281 H   0  0  0  0  0  0
   35.9329    6.0518   14.6846 H   0  0  0  0  0  0
   37.4756    4.8207   13.1325 H   0  0  0  0  0  0
   37.3140    6.5001   12.6812 H   0  0  0  0  0  0
   39.6479    5.2675   14.2229 H   0  0  0  0  0  0
   39.6922    5.8533   12.5845 H   0  0  0  0  0  0
   39.3039    8.1644   13.3287 H   0  0  0  0  0  0
   40.6794    7.4936   14.1802 H   0  0  0  0  0  0
  1  2  1  0  0  0
  1  5  1  0  0  0
  2  3  2  0  0  0
  2  6  1  0  0  0
  3  4  1  0  0  0
  3 16  1  0  0  0
  4  5  2  0  0  0
  4 15  1  0  0  0
  5  9  1  0  0  0
  6  7  2  0  0  0
  6  8  1  0  0  0
  9 10  1  0  0  0
  9 14  2  0  0  0
 10 11  2  0  0  0
 10 28  1  0  0  0
 11 12  1  0  0  0
 11 21  1  0  0  0
 12 13  2  0  0  0
 12 29  1  0  0  0
 13 14  1  0  0  0
 13 30  1  0  0  0
 14 31  1  0  0  0
 16 17  1  0  0  0
 17 18  1  0  0  0
 17 32  1  0  0  0
 17 33  1  0  0  0
 18 19  1  0  0  0
 18 20  2  0  0  0
 21 22  1  0  0  0
 21 34  1  0  0  0
 22 23  1  0  0  0
 22 27  1  0  0  0
 22 35  1  0  0  0
 23 24  1  0  0  0
 23 36  1  0  0  0
 23 37  1  0  0  0
 24 25  1  0  0  0
 24 38  1  0  0  0
 24 39  1  0  0  0
 25 26  1  0  0  0
 25 40  1  0  0  0
 25 41  1  0  0  0
 26 27  1  0  0  0
 26 42  1  0  0  0
 26 43  1  0  0  0
 27 44  1  0  0  0
 27 45  1  0  0  0
M  CHG  2   8  -1  19  -1
M  END
> <i_m_stars>
0

> <s_m_entry_id>
431

> <s_m_entry_name>
Structure364

> <s_m_Source_Path>
C:\Users\yujiethinkpad\Desktop\05A\p38

> <s_m_Source_File>
2qbs.pdb

> <i_m_Source_File_Index>
1

> <s_pdb_PDB_TITLE>
CRYSTAL STRUCTURE OF PTP1B-INHIBITOR COMPLEX

> <s_pdb_PDB_ID>
2QBS

> <r_pdb_PDB_CRYST1_a>
88.458

> <r_pdb_PDB_CRYST1_b>
88.458

> <r_pdb_PDB_CRYST1_c>
104.358

> <r_pdb_PDB_CRYST1_alpha>
90

> <r_pdb_PDB_CRYST1_beta>
90

> <r_pdb_PDB_CRYST1_gamma>
120

> <s_pdb_PDB_CRYST1_Space_Group>
P 31 2 1

> <i_pdb_PDB_CRYST1_z>
6

> <s_pdb_PDB_CLASSIFICATION>
HYDROLASE

> <s_pdb_PDB_DEPOSITION_DATE>
18-JUN-07

> <s_pdb_PDB_format_version>
3.30

> <r_pdb_PDB_R>
0.193

> <r_pdb_PDB_Rfree>
0.229

> <r_pdb_PDB_RESOLUTION>
2.1

> <s_pdb_PDB_EXPDTA>
X-RAY DIFFRACTION

> <r_pdb_PDB_EXPDTA_TEMPERATURE>
113

> <r_pdb_PDB_EXPDTA_PH>
7

> <s_pdb_PDB_REMARK_350_Biomolecule_1_Transform_1_Chains>
A

> <s_pdb_PDB_REMARK_350_Biomolecule_1_Transform_1_Matrix_1>
1.000000 0.000000 0.000000   0.000000;0.000000 1.000000 0.000000   0.000000;0.000000 0.000000 1.000000   0.000000

> <s_ppw_entry_id_backup>
361

> <b_ppw_prepared>
1

> <s_ppw_prepared_with_version>
2021-2

> <b_ppw_assigned_bond_orders>
1

> <b_ppw_added_hydrogens>
1

> <b_ppw_treated_metals>
1

> <b_ppw_created_disulfur>
1

> <s_ppw_het_states>
eJztkzFPwzAQhf+KlTkJPvsuNOnGxIoYUYaodCIkHcKAqv53cr7Sl4CYEEz19PTs+LPeyx0zyhr3NK/A4TZ3vs2dyg1kfZHRQxJkgIyQDCmQFSRoEbQIGoPGoDFoDBqDxqAxaAwag8agCWgCmoAmiab6HJWlROeUkqGpEBK08MLS0LAIwVqmK4NxQvfs0rA0GJS0lwImlGE9hJXBOCHJqL4YmnZASdZPQFXWEi0NzZTQoJUX0KNdSujNKiO0Z8UROrT61kZ1uZQNi3dwwmqLK0MWlPQOwTskRSiIUFKEgtQl4I7ZISpDPYOPp9wVrNpjzd9mj1M37d1hP3T99N7o+ejdy67rb17Hfuvui7txeHa78W2YGidb99A4n6X/6C9mrli0+r9D90m+Tt116n49db6sRB+vU0exjCyb76Omh36ctDpNWhGytj19ACUHdVU=

> <s_m_source_file>
ligprep_co.maegz

> <i_m_source_file_index>
1

> <i_lp_mmshare_version>
54117

> <s_epik_input>
W09IXUMoPU8pW0NIMl1PYzFjKEJyKWMoc2MxQyg9TylbT0hdKS1jMltjSF1jKFtjSF1bY0hdW2NIXTIpW05IXVtDSF0zW0NIMl1bQ0gyXVtDSDJdW0NIMl1bQ0gyXTM=

> <s_epik_cmdline>
J2VwaWtfcHl0aG9uJywgJy1waCcsICc3LjAnLCAnLXRuJywgJzgnLCAnLW1hJywgJzUwMCcsICctaW1hZScsICc8aW5maWxlLm1hZT4nLCAnLW9tYWUnLCAnPG91dGZpbGUubWFlPic=

> <r_epik_Ionization_Penalty>
  0.0069

> <r_epik_Ionization_Penalty_Charging>
  0.0002

> <r_epik_Ionization_Penalty_Neutral>
  0.0066

> <r_epik_State_Penalty>
  0.0049

> <r_epik_Charging_Adjusted_Penalty>
0.00515738986392068

> <i_epik_Tot_Q>
-2

> <i_epik_Tot_abs_Q>
2

> <i_f3d_flags>
0

> <s_lp_Force_Field>
S-OPLS

> <r_lp_Energy>
50.591123

> <b_lp_Chiralities_Consistent>
1

> <s_lp_Variant>
co-1

> <s_m_job_name>
align_ligands_6265

> <s_i_glide_gridfile>
glide-grid_PTP1B

> <i_i_glide_lignum>
1

> <i_i_glide_rotatable_bonds>
7

> <r_i_docking_score>
-7.92493954990342

> <r_i_glide_ligand_efficiency>
-0.293516279626053

> <r_i_glide_ligand_efficiency_sa>
-0.880548837910776

> <r_i_glide_ligand_efficiency_ln>
-1.84479527437796

> <r_i_glide_gscore>
-7.92983954990342

> <r_i_glide_lipo>
-2.33323958253827

> <r_i_glide_hbond>
-0.926737482755243

> <r_i_glide_metal>
0

> <r_i_glide_rewards>
-0.524850060499844

> <r_i_glide_evdw>
-33.0025291442871

> <r_i_glide_ecoul>
-19.4387626647949

> <r_i_glide_erotb>
0.490342647462805

> <r_i_glide_esite>
-0.0694142146392731

> <r_i_glide_emodel>
-98.1682935183033

> <r_i_glide_energy>
-52.441291809082

> <r_i_glide_einternal>
4.05575370788574

> <i_i_glide_confnum>
169

> <i_i_glide_posenum>
239

> <r_i_glide_eff_state_penalty>
0.0049

> <r_glide_shape_similarity>
0.979899406433105

> <i_phase_Input_Structure_Number>
1

> <i_phase_Structure_Number>
1

> <r_phase_Similarity_to_Reference>
1

> <i_phase_Reference_Structure>
1

> <s_phase_Alignment_Method>


> <s_phase_Alignment_Reason>


> <s_phase_Core_SMARTS>


> <r_m_RMSD_362>
0.641268577548299

> <r_m_RMS_In_Place_362>
0.626475520247022

> <s_m_subgroup_title>
align_ligands_6265

> <s_m_subgroupid>
align_ligands_6265

> <b_m_subgroup_collapsed>
0

$$$$
