1h1q
                    3D
 Schrodinger Suite 2021-2.
 45 48  0  0  1  0            999 V2000
    1.4009   28.9548    6.7882 C   0  0  0  0  0  0
   -1.5323   32.0586    7.9492 C   0  0  0  0  0  0
   -0.5892   26.5474    9.0133 C   0  0  0  0  0  0
   -1.2565   25.6957   10.1221 C   0  0  0  0  0  0
   -1.3331   24.2495    9.5894 C   0  0  0  0  0  0
   -1.6268   23.2021   10.6778 C   0  0  0  0  0  0
   -0.7707   23.3049   11.9488 C   0  0  0  0  0  0
   -0.7309   24.7507   12.4948 C   0  0  0  0  0  0
   -0.4117   25.8204   11.4295 C   0  0  0  0  0  0
    4.6048   25.6730    5.9801 C   0  0  0  0  0  0
    4.6006   25.2744    7.3202 C   0  0  0  0  0  0
    3.8947   26.0119    8.2670 C   0  0  0  0  0  0
    3.2013   27.1679    7.9150 C   0  0  0  0  0  0
    0.4724   28.0973    7.5214 N   0  0  0  0  0  0
   -0.5972   28.5465    8.0910 C   0  0  0  0  0  0
   -1.4122   27.7146    8.7603 O   0  0  0  0  0  0
   -0.8870   29.9631    7.9668 C   0  0  0  0  0  0
   -1.8759   30.9178    8.3791 N   0  0  0  0  0  0
   -0.4112   31.9989    7.2724 N   0  0  0  0  0  0
   -0.0431   30.7513    7.2883 C   0  0  0  0  0  0
    1.1329   30.1943    6.7075 N   0  0  0  0  0  0
    2.5138   28.6501    6.1942 N   0  0  0  0  0  0
    3.2021   27.5520    6.5795 C   0  0  0  0  0  0
    3.8931   26.8094    5.6269 C   0  0  0  0  0  0
   -2.1456   32.9222    8.1598 H   0  0  0  0  0  0
   -0.5075   25.9562    8.1012 H   0  0  0  0  0  0
    0.3993   26.8651    9.3449 H   0  0  0  0  0  0
   -2.2645   26.0672   10.3061 H   0  0  0  0  0  0
   -0.3979   23.9984    9.0891 H   0  0  0  0  0  0
   -2.0973   24.1896    8.8145 H   0  0  0  0  0  0
   -1.5229   22.2034   10.2537 H   0  0  0  0  0  0
   -2.6813   23.2511   10.9493 H   0  0  0  0  0  0
    0.2439   22.9715   11.7307 H   0  0  0  0  0  0
   -1.1739   22.6398   12.7125 H   0  0  0  0  0  0
    0.0014   24.8128   13.2998 H   0  0  0  0  0  0
   -1.6848   24.9848   12.9673 H   0  0  0  0  0  0
   -0.5550   26.8119   11.8590 H   0  0  0  0  0  0
    0.6485   25.7767   11.1801 H   0  0  0  0  0  0
    5.1539   25.0996    5.2479 H   0  0  0  0  0  0
    5.1457   24.3926    7.6230 H   0  0  0  0  0  0
    3.8773   25.6910    9.2981 H   0  0  0  0  0  0
    2.6828   27.7381    8.6716 H   0  0  0  0  0  0
   -0.0194   32.8380    6.8693 H   0  0  0  0  0  0
    2.8632   29.2325    5.4467 H   0  0  0  0  0  0
    3.8681   27.1325    4.5967 H   0  0  0  0  0  0
  1 14  1  0  0  0
  1 21  2  0  0  0
  1 22  1  0  0  0
  2 18  2  0  0  0
  2 19  1  0  0  0
  2 25  1  0  0  0
  3  4  1  0  0  0
  3 16  1  0  0  0
  3 26  1  0  0  0
  3 27  1  0  0  0
  4  5  1  0  0  0
  4  9  1  0  0  0
  4 28  1  0  0  0
  5  6  1  0  0  0
  5 29  1  0  0  0
  5 30  1  0  0  0
  6  7  1  0  0  0
  6 31  1  0  0  0
  6 32  1  0  0  0
  7  8  1  0  0  0
  7 33  1  0  0  0
  7 34  1  0  0  0
  8  9  1  0  0  0
  8 35  1  0  0  0
  8 36  1  0  0  0
  9 37  1  0  0  0
  9 38  1  0  0  0
 10 11  2  0  0  0
 10 24  1  0  0  0
 10 39  1  0  0  0
 11 12  1  0  0  0
 11 40  1  0  0  0
 12 13  2  0  0  0
 12 41  1  0  0  0
 13 23  1  0  0  0
 13 42  1  0  0  0
 14 15  2  0  0  0
 15 16  1  0  0  0
 15 17  1  0  0  0
 17 18  1  0  0  0
 17 20  2  0  0  0
 19 20  1  0  0  0
 19 43  1  0  0  0
 20 21  1  0  0  0
 22 23  1  0  0  0
 22 44  1  0  0  0
 23 24  2  0  0  0
 24 45  1  0  0  0
M  END
> <i_m_stars>
0

> <s_m_entry_id>
1784

> <s_m_entry_name>
Structure1476

> <s_m_Source_Path>
C:\Users\yujiethinkpad\Desktop\05A\CDK2

> <s_m_Source_File>
co_ligand.maegz

> <i_m_Source_File_Index>
1

> <s_pdb_PDB_TITLE>
STRUCTURE OF HUMAN THR160-PHOSPHO CDK2/CYCLIN A COMPLEXED WITH THE INHIBITOR NU6094

> <s_pdb_PDB_ID>
1H1Q

> <r_pdb_PDB_CRYST1_a>
73.99

> <r_pdb_PDB_CRYST1_b>
134.73

> <r_pdb_PDB_CRYST1_c>
148.12

> <r_pdb_PDB_CRYST1_alpha>
90

> <r_pdb_PDB_CRYST1_beta>
90

> <r_pdb_PDB_CRYST1_gamma>
90

> <s_pdb_PDB_CRYST1_Space_Group>
P 21 21 21

> <i_pdb_PDB_CRYST1_z>
8

> <s_pdb_PDB_CLASSIFICATION>
TRANSFERASE

> <s_pdb_PDB_DEPOSITION_DATE>
21-JUL-02

> <s_pdb_PDB_format_version>
3.15

> <r_pdb_PDB_R>
0.238

> <r_pdb_PDB_Rfree>
0.332

> <r_pdb_PDB_RESOLUTION>
2.5

> <s_pdb_PDB_EXPDTA>
X-RAY DIFFRACTION

> <r_pdb_PDB_EXPDTA_TEMPERATURE>
100

> <r_pdb_PDB_EXPDTA_PH>
7

> <s_pdb_PDB_REMARK_350_Biomolecule_1_Transform_1_Chains>
A, B

> <s_pdb_PDB_REMARK_350_Biomolecule_1_Transform_1_Matrix_1>
1.000000 0.000000 0.000000   0.000000;0.000000 1.000000 0.000000   0.000000;0.000000 0.000000 1.000000   0.000000

> <s_pdb_PDB_REMARK_350_Biomolecule_2_Transform_1_Chains>
C, D

> <s_pdb_PDB_REMARK_350_Biomolecule_2_Transform_1_Matrix_1>
1.000000 0.000000 0.000000   0.000000;0.000000 1.000000 0.000000   0.000000;0.000000 0.000000 1.000000   0.000000

> <s_ppw_entry_id_backup>
1457

> <b_ppw_prepared>
1

> <s_ppw_prepared_with_version>
2021-2

> <b_ppw_assigned_bond_orders>
1

> <b_ppw_added_hydrogens>
1

> <b_ppw_treated_metals>
1

> <b_ppw_created_disulfur>
1

> <s_ppw_het_states>
eJztVTFyGzEM/MrN1bZC8AgClLtUbjMpMyk0jqsoUgqlyHj8dx/Ak5Y8F2kUV1KFW5FcgLs7fBlp3A7f5p+WNN0N4fvdYGVCySgzSkGpKMul5ICSUEaUYGOwMdgYbAw2BhuDLYMtgy2DLYMtgy2DLTub1ctN1D1xGawC805qAWuRcGOVvAcCzmADUrPFARuIcL/1ajuAm0PFVzRb1IECoPiWcAGs7M4wDer1xxbIaIzrcJiWfRbTJkKmen0EsapOEZJ1wy0AOmXv1DSKHYDW7TbrCoKgVReCll0fmc+zRBMzbALFuYeX0VqcnR42VML872hE/h3ZtLTv6fL9ajuLykw3fj3tTs/D7+fDbn/6u/UTh59Pu/2nX8f9w/B4//l4+DE8Hf8cTtuBHoYv85LRbXRL1LUSFTsgrAJ0S9RHJipupjDlJlFxwzHVAFH9THY150DFTSpEc6DuyXZyaX7v02Wn/ztdcxtjvDxbGVbOsHKGlQVWFlhZYGWBlQVWFlhZEBwBm4BNwKZgU7Ap2BRsCjYFm4JNwaZgU7CV0IQsuyEUllkAWGYBGkO425XXQMIZ7iFptjig8JB4HoTWAA4Vt500W9x2AtuJB0QQEEnrMzwPguEqUNCY+HCCacVnMW0iZKrXRxCr6hQhWTfcAqBT9U41Y8t0vjGClHUFQdCqC0HLvo9ynuXds6Whf7Y09c+WytWfrVuirpKo2AFpFaBboj4yUe2z5YnCs6XcP1seqP/ybL2+AdFA5Lw=

> <s_m_job_name>
align_ligands_3

> <i_phase_Input_Structure_Number>
1

> <i_phase_Structure_Number>
1

> <i_phase_Reference_Structure>
1

> <s_phase_Core_SMARTS>


> <r_phase_Similarity_to_Reference>
1

> <s_phase_Alignment_Method>


> <s_phase_Alignment_Reason>


> <r_m_RMS_In_Place_1476>
0

> <r_m_RMSD_1466>
0.228811014740381

> <r_m_RMS_In_Place_1636>
0

> <s_m_subgroup_title>
align_ligands_3

> <s_m_subgroupid>
align_ligands_3

> <b_m_subgroup_collapsed>
0

$$$$
