17124-1
                    3D
 Schrodinger Suite 2021-2.
 46 47  0  0  1  0            999 V2000
   24.2850   12.3612   30.1954 C   0  0  0  0  0  0
   23.5357   11.0498   30.4467 C   0  0  0  0  0  0
   22.3951   11.3181   31.2672 O   0  0  0  0  0  0
   21.5890   10.2582   31.6612 C   0  0  0  0  0  0
   21.9011    9.0177   31.1922 N   0  0  0  0  0  0
   21.0975    7.9566   31.4399 C   0  0  0  0  0  0
   19.9110    8.1194   32.1995 C   0  0  0  0  0  0
   19.5935    9.3920   32.7192 C   0  0  0  0  0  0
   18.4112    9.5377   33.4402 N   0  0  0  0  0  0
   20.4381   10.4943   32.4505 C   0  0  0  0  0  0
   20.0975   11.8404   32.8986 C   0  0  0  0  0  0
   19.8180   12.8995   33.2575 N   0  0  0  0  0  0
   21.5192    6.7002   30.9016 N   0  0  0  0  0  0
   21.0478    5.4454   31.0892 C   0  0  0  0  0  0
   20.0014    5.2012   31.6698 O   0  0  0  0  0  0
   21.8190    4.2497   30.4797 C   0  0  0  0  0  0
   23.3123    4.2521   30.8171 C   0  0  0  0  0  0
   23.9510    3.2855   31.6610 C   0  0  0  0  0  0
   23.2112    2.2663   32.2230 O   0  0  0  0  0  0
   23.8603    1.3955   33.1569 C   0  0  0  0  0  0
   25.3524    3.3777   31.8745 C   0  0  0  0  0  0
   26.1114    4.3991   31.2774 C   0  0  0  0  0  0
   27.9926    4.4174   31.6245 Br  0  0  0  0  0  0
   25.4788    5.3784   30.4628 C   0  0  0  0  0  0
   24.0948    5.2576   30.2109 C   0  0  0  0  0  0
   26.2257    6.4116   29.9290 O   0  0  0  0  0  0
   25.5283    7.6057   29.5542 C   0  0  0  0  0  0
   25.1682   12.2007   29.5793 H   0  0  0  0  0  0
   24.6135   12.8073   31.1340 H   0  0  0  0  0  0
   23.6492   13.0811   29.6825 H   0  0  0  0  0  0
   23.2246   10.6149   29.4968 H   0  0  0  0  0  0
   24.1994   10.3402   30.9467 H   0  0  0  0  0  0
   19.2405    7.3028   32.4049 H   0  0  0  0  0  0
   18.0380   10.4575   33.6517 H   0  0  0  0  0  0
   17.7336    8.7872   33.4648 H   0  0  0  0  0  0
   22.3662    6.7646   30.3528 H   0  0  0  0  0  0
   21.3620    3.3118   30.7932 H   0  0  0  0  0  0
   21.6994    4.2840   29.3968 H   0  0  0  0  0  0
   23.1131    0.7438   33.6116 H   0  0  0  0  0  0
   24.5916    0.7527   32.6621 H   0  0  0  0  0  0
   24.3492    1.9439   33.9677 H   0  0  0  0  0  0
   25.8890    2.6660   32.4832 H   0  0  0  0  0  0
   23.6122    5.9387   29.5280 H   0  0  0  0  0  0
   26.2509    8.4016   29.3628 H   0  0  0  0  0  0
   24.9501    7.4686   28.6394 H   0  0  0  0  0  0
   24.8693    7.9493   30.3563 H   0  0  0  0  0  0
  1  2  1  0  0  0
  1 28  1  0  0  0
  1 29  1  0  0  0
  1 30  1  0  0  0
  2  3  1  0  0  0
  2 31  1  0  0  0
  2 32  1  0  0  0
  3  4  1  0  0  0
  4 10  1  0  0  0
  4  5  2  0  0  0
  5  6  1  0  0  0
  6  7  2  0  0  0
  6 13  1  0  0  0
  7  8  1  0  0  0
  7 33  1  0  0  0
  8  9  1  0  0  0
  8 10  2  0  0  0
  9 34  1  0  0  0
  9 35  1  0  0  0
 10 11  1  0  0  0
 11 12  3  0  0  0
 13 14  1  0  0  0
 13 36  1  0  0  0
 14 15  2  0  0  0
 14 16  1  0  0  0
 16 17  1  0  0  0
 16 37  1  0  0  0
 16 38  1  0  0  0
 17 25  1  0  0  0
 17 18  2  0  0  0
 18 19  1  0  0  0
 18 21  1  0  0  0
 19 20  1  0  0  0
 20 39  1  0  0  0
 20 40  1  0  0  0
 20 41  1  0  0  0
 21 22  2  0  0  0
 21 42  1  0  0  0
 22 23  1  0  0  0
 22 24  1  0  0  0
 24 25  2  0  0  0
 24 26  1  0  0  0
 25 43  1  0  0  0
 26 27  1  0  0  0
 27 44  1  0  0  0
 27 45  1  0  0  0
 27 46  1  0  0  0
M  END
> <i_m_stars>
0

> <s_m_entry_id>
2986

> <s_m_entry_name>
Jnk1_17124-1.1

> <s_m_Source_Path>
C:\Users\yujiethinkpad\Desktop\05A\JNK1\ref

> <s_m_Source_File>
17124-1_04988.maegz

> <i_m_Source_File_Index>
1

> <s_i_glide_gridfile>
glide-grid_JNK1

> <s_lp_Force_Field>
S-OPLS

> <s_lp_Variant>
17124-1-1

> <r_i_docking_score>
-7.34395567418275

> <r_i_glide_ecoul>
-5.52937269210815

> <r_i_glide_einternal>
7.73797178268433

> <r_i_glide_emodel>
-45.3488090923084

> <r_i_glide_energy>
-43.1329913139343

> <r_i_glide_erotb>
0.525776395733918

> <r_i_glide_esite>
0

> <r_i_glide_evdw>
-37.6036186218262

> <r_i_glide_gscore>
-7.34395567418275

> <r_i_glide_hbond>
-0.32

> <r_i_glide_ligand_efficiency>
-0.271998358303065

> <r_i_glide_ligand_efficiency_ln>
-1.70955180637796

> <r_i_glide_ligand_efficiency_sa>
-0.815995074012732

> <r_i_glide_lipo>
-3.50256366317532

> <r_i_glide_metal>
0

> <r_i_glide_rewards>
-1.33758157183381

> <r_lp_Energy>
31.182921

> <i_i_glide_confnum>
18

> <i_i_glide_lignum>
1

> <i_i_glide_posenum>
167

> <i_i_glide_rotatable_bonds>
8

> <i_lp_mmshare_version>
54117

> <b_lp_Chiralities_Consistent>
1

> <r_lp_tautomer_probability>
1

> <r_i_glide_eff_state_penalty>
0

> <s_epik_input>
W0NIM11bQ0gyXU9jMW5jKFtjSF1jKFtOSDJdKWMxQyNOKVtOSF1DKD1PKVtDSDJdYzJjKE9bQ0gzXSlbY0hdYyhCciljKFtjSF0yKU9bQ0gzXQ==

> <s_epik_cmdline>
J2VwaWtfcHl0aG9uJywgJy1waCcsICc3LjAnLCAnLXRuJywgJzgnLCAnLW1hJywgJzUwMCcsICctaW1hZScsICc8aW5maWxlLm1hZT4nLCAnLW9tYWUnLCAnPG91dGZpbGUubWFlPic=

> <r_epik_Ionization_Penalty>
  0.0000

> <r_epik_Ionization_Penalty_Charging>
  0.0000

> <r_epik_Ionization_Penalty_Neutral>
  0.0000

> <r_epik_State_Penalty>
  0.0000

> <r_epik_Charging_Adjusted_Penalty>
0

> <i_epik_Tot_Q>
0

> <i_epik_Tot_abs_Q>
0

> <i_f3d_flags>
0

> <s_m_job_name>
glide-dock_SP_171244

> <r_user_dG.exp>
-9.675922

> <r_m_Molecular_weight>
435.28553

> <r_glide_shape_similarity>
0.868154108524323

> <r_m_RMSD_1801>
0

> <r_m_RMSD_1804>
0.421531583673854

> <r_m_RMS_In_Place_2865>
0.684305683486268

> <r_m_RMSD_2865>
0.498754654838675

> <r_m_RMSD_2770>
0

> <s_m_subgroup_title>
glide-dock_SP_171244_lib1

> <s_m_subgroupid>
glide-dock_SP_171244_lib1

> <b_m_subgroup_collapsed>
0

$$$$
