18629-1
                    3D
 Schrodinger Suite 2021-2.
 41 42  0  0  1  0            999 V2000
   24.2708   12.3505   30.2009 C   0  0  0  0  0  0
   23.5240   11.0412   30.4506 C   0  0  0  0  0  0
   22.3883   11.2978   31.2686 O   0  0  0  0  0  0
   21.5864   10.2366   31.6464 C   0  0  0  0  0  0
   21.9005    9.0072   31.1802 N   0  0  0  0  0  0
   21.1069    7.9479   31.4345 C   0  0  0  0  0  0
   19.9348    8.1070   32.2000 C   0  0  0  0  0  0
   19.6112    9.3690   32.7094 C   0  0  0  0  0  0
   18.4333    9.4994   33.4281 N   0  0  0  0  0  0
   20.4432   10.4636   32.4296 C   0  0  0  0  0  0
   20.1013   11.7970   32.8701 C   0  0  0  0  0  0
   19.8218   12.8546   33.2209 N   0  0  0  0  0  0
   21.5195    6.6944   30.9002 N   0  0  0  0  0  0
   21.0509    5.4456   31.0866 C   0  0  0  0  0  0
   20.0101    5.1993   31.6702 O   0  0  0  0  0  0
   21.8257    4.2634   30.4831 C   0  0  0  0  0  0
   23.3129    4.2887   30.7990 C   0  0  0  0  0  0
   24.1140    5.2700   30.1942 C   0  0  0  0  0  0
   25.4884    5.3396   30.4476 C   0  0  0  0  0  0
   26.3088    6.4249   29.7988 C   0  0  0  0  0  0
   26.0923    4.3841   31.2775 C   0  0  0  0  0  0
   25.3054    3.3780   31.8664 C   0  0  0  0  0  0
   23.9171    3.3288   31.6366 C   0  0  0  0  0  0
   25.1458   12.1860   29.5722 H   0  0  0  0  0  0
   24.6103   12.7928   31.1381 H   0  0  0  0  0  0
   23.6298   13.0763   29.6999 H   0  0  0  0  0  0
   23.2141   10.6109   29.4970 H   0  0  0  0  0  0
   24.1922   10.3303   30.9404 H   0  0  0  0  0  0
   19.2699    7.2865   32.4148 H   0  0  0  0  0  0
   18.0593   10.4120   33.6534 H   0  0  0  0  0  0
   17.7824    8.7313   33.4926 H   0  0  0  0  0  0
   22.3664    6.7486   30.3629 H   0  0  0  0  0  0
   21.3948    3.3254   30.8373 H   0  0  0  0  0  0
   21.6863    4.2733   29.4019 H   0  0  0  0  0  0
   23.6806    5.9847   29.5106 H   0  0  0  0  0  0
   27.3659    6.3302   30.0504 H   0  0  0  0  0  0
   26.2138    6.3732   28.7138 H   0  0  0  0  0  0
   25.9787    7.4103   30.1259 H   0  0  0  0  0  0
   27.1549    4.4169   31.4699 H   0  0  0  0  0  0
   25.7681    2.6385   32.5033 H   0  0  0  0  0  0
   23.3235    2.5501   32.0936 H   0  0  0  0  0  0
  1  2  1  0  0  0
  1 24  1  0  0  0
  1 25  1  0  0  0
  1 26  1  0  0  0
  2  3  1  0  0  0
  2 27  1  0  0  0
  2 28  1  0  0  0
  3  4  1  0  0  0
  4 10  1  0  0  0
  4  5  2  0  0  0
  5  6  1  0  0  0
  6  7  2  0  0  0
  6 13  1  0  0  0
  7  8  1  0  0  0
  7 29  1  0  0  0
  8  9  1  0  0  0
  8 10  2  0  0  0
  9 30  1  0  0  0
  9 31  1  0  0  0
 10 11  1  0  0  0
 11 12  3  0  0  0
 13 14  1  0  0  0
 13 32  1  0  0  0
 14 15  2  0  0  0
 14 16  1  0  0  0
 16 17  1  0  0  0
 16 33  1  0  0  0
 16 34  1  0  0  0
 17 23  1  0  0  0
 17 18  2  0  0  0
 18 19  1  0  0  0
 18 35  1  0  0  0
 19 20  1  0  0  0
 19 21  2  0  0  0
 20 36  1  0  0  0
 20 37  1  0  0  0
 20 38  1  0  0  0
 21 22  1  0  0  0
 21 39  1  0  0  0
 22 23  2  0  0  0
 22 40  1  0  0  0
 23 41  1  0  0  0
M  END
> <i_m_stars>
0

> <s_m_entry_id>
2975

> <s_m_entry_name>
Jnk1_18629-1.1

> <s_m_Source_Path>
C:\Users\yujiethinkpad\Desktop\05A\JNK1

> <s_m_Source_File>
Jnk1_18629-1.sdf

> <i_m_Source_File_Index>
1

> <s_i_glide_gridfile>
glide-grid_JNK1

> <r_i_docking_score>
-7.65311848515779

> <r_i_glide_ecoul>
-6.75680255889893

> <r_i_glide_einternal>
7.87633991241455

> <r_i_glide_emodel>
-48.4940943003336

> <r_i_glide_energy>
-41.476056098938

> <r_i_glide_erotb>
0.961897661652081

> <r_i_glide_esite>
0

> <r_i_glide_evdw>
-34.7192535400391

> <r_i_glide_gscore>
-7.65311848515779

> <r_i_glide_hbond>
-0.319809420901642

> <r_i_glide_ligand_efficiency>
-0.332744281963382

> <r_i_glide_ligand_efficiency_ln>
-1.85059344435289

> <r_i_glide_ligand_efficiency_sa>
-0.946280475221063

> <r_i_glide_lipo>
-3.35112332848956

> <r_i_glide_metal>
0

> <r_i_glide_rewards>
-2.19460033658188

> <i_i_glide_confnum>
11

> <i_i_glide_lignum>
19

> <i_i_glide_posenum>
51

> <i_i_glide_rotatable_bonds>
6

> <r_i_glide_eff_state_penalty>
0

> <s_m_job_name>
glide-dock_SP_other_4988

> <r_user_dG.exp>
-8.67377

> <r_m_Molecular_weight>
310.35861

> <r_glide_shape_similarity>
0.893724024295807

> <s_m_subgroup_title>
glide-dock_SP_other_4988_lib1

> <s_m_subgroupid>
glide-dock_SP_other_4988_lib1

> <b_m_subgroup_collapsed>
0

$$$$
