18628-1
                    3D
 Schrodinger Suite 2021-2.
 41 42  0  0  1  0            999 V2000
   18.1168    7.4862   32.0951 C   0  0  0  0  0  0
   18.4400    8.4011   33.3009 C   0  0  0  0  0  0
   19.1731    9.5777   33.0420 O   0  0  0  0  0  0
   20.3910    9.4509   32.4389 C   0  0  0  0  0  0
   20.8100    8.2154   32.1424 N   0  0  0  0  0  0
   21.7842    8.0209   31.2689 C   0  0  0  0  0  0
   22.5536    9.1115   30.8251 C   0  0  0  0  0  0
   22.2357   10.4114   31.2635 C   0  0  0  0  0  0
   23.0400   11.4678   30.8433 N   0  0  0  0  0  0
   21.0926   10.5933   32.0699 C   0  0  0  0  0  0
   20.5707   11.8791   32.4991 C   0  0  0  0  0  0
   20.1468   12.8947   32.8516 N   0  0  0  0  0  0
   22.0982    6.7395   30.7704 N   0  0  0  0  0  0
   21.5459    5.5334   30.9992 C   0  0  0  0  0  0
   20.5261    5.3173   31.6440 O   0  0  0  0  0  0
   22.2614    4.3563   30.3450 C   0  0  0  0  0  0
   23.7613    4.3914   30.6182 C   0  0  0  0  0  0
   24.3835    3.4961   31.5134 C   0  0  0  0  0  0
   23.6102    2.4364   32.2415 C   0  0  0  0  0  0
   25.7595    3.5965   31.7622 C   0  0  0  0  0  0
   26.5284    4.5796   31.1296 C   0  0  0  0  0  0
   25.9266    5.4570   30.2205 C   0  0  0  0  0  0
   24.5591    5.3418   29.9490 C   0  0  0  0  0  0
   17.6105    6.5997   32.4502 H   0  0  0  0  0  0
   18.9337    7.0375   31.5619 H   0  0  0  0  0  0
   17.6114    7.9988   31.2939 H   0  0  0  0  0  0
   17.5209    8.7678   33.7447 H   0  0  0  0  0  0
   18.9502    7.8204   34.0657 H   0  0  0  0  0  0
   23.3876    8.9524   30.1574 H   0  0  0  0  0  0
   22.7500   12.4204   30.9876 H   0  0  0  0  0  0
   23.7546   11.3332   30.1441 H   0  0  0  0  0  0
   22.9184    6.7008   30.1938 H   0  0  0  0  0  0
   21.8031    3.4208   30.6627 H   0  0  0  0  0  0
   22.0939    4.4139   29.2712 H   0  0  0  0  0  0
   24.2176    1.9033   32.9729 H   0  0  0  0  0  0
   22.8322    2.9636   32.7644 H   0  0  0  0  0  0
   23.1610    1.7113   31.5670 H   0  0  0  0  0  0
   26.2379    2.9190   32.4540 H   0  0  0  0  0  0
   27.5857    4.6551   31.3359 H   0  0  0  0  0  0
   26.5209    6.2069   29.7186 H   0  0  0  0  0  0
   24.1271    6.0060   29.2157 H   0  0  0  0  0  0
  1  2  1  0  0  0
  1 24  1  0  0  0
  1 25  1  0  0  0
  1 26  1  0  0  0
  2  3  1  0  0  0
  2 27  1  0  0  0
  2 28  1  0  0  0
  3  4  1  0  0  0
  4 10  1  0  0  0
  4  5  2  0  0  0
  5  6  1  0  0  0
  6  7  2  0  0  0
  6 13  1  0  0  0
  7  8  1  0  0  0
  7 29  1  0  0  0
  8  9  1  0  0  0
  8 10  2  0  0  0
  9 30  1  0  0  0
  9 31  1  0  0  0
 10 11  1  0  0  0
 11 12  3  0  0  0
 13 14  1  0  0  0
 13 32  1  0  0  0
 14 15  2  0  0  0
 14 16  1  0  0  0
 16 17  1  0  0  0
 16 33  1  0  0  0
 16 34  1  0  0  0
 17 23  1  0  0  0
 17 18  2  0  0  0
 18 19  1  0  0  0
 18 20  1  0  0  0
 19 35  1  0  0  0
 19 36  1  0  0  0
 19 37  1  0  0  0
 20 21  2  0  0  0
 20 38  1  0  0  0
 21 22  1  0  0  0
 21 39  1  0  0  0
 22 23  2  0  0  0
 22 40  1  0  0  0
 23 41  1  0  0  0
M  END
> <i_m_stars>
0

> <s_m_entry_id>
2985

> <s_m_entry_name>
Jnk1_18628-1.1

> <s_m_Source_Path>
C:\Users\yujiethinkpad\Desktop\05A\JNK1

> <s_m_Source_File>
Jnk1_18628-1.sdf

> <i_m_Source_File_Index>
1

> <s_i_glide_gridfile>
glide-grid_JNK1

> <r_i_docking_score>
-6.21689827197824

> <r_i_glide_ecoul>
-3.60564017295837

> <r_i_glide_einternal>
1.04957866668701

> <r_i_glide_emodel>
-28.832941088511

> <r_i_glide_energy>
-35.5780255794525

> <r_i_glide_erotb>
0.961897661652081

> <r_i_glide_esite>
0

> <r_i_glide_evdw>
-31.9723854064941

> <r_i_glide_gscore>
-6.21689827197824

> <r_i_glide_hbond>
-0.142084729464295

> <r_i_glide_ligand_efficiency>
-0.270299924868619

> <r_i_glide_ligand_efficiency_ln>
-1.50330237388119

> <r_i_glide_ligand_efficiency_sa>
-0.76869703018681

> <r_i_glide_lipo>
-2.67660120971589

> <r_i_glide_metal>
0

> <r_i_glide_rewards>
-2.22064469818166

> <i_i_glide_confnum>
6

> <i_i_glide_lignum>
18

> <i_i_glide_posenum>
149

> <i_i_glide_rotatable_bonds>
6

> <r_i_glide_eff_state_penalty>
0

> <s_m_job_name>
glide-dock_SP_other_4988

> <r_user_dG.exp>
-8.702592

> <r_m_Molecular_weight>
310.35861

> <r_glide_shape_similarity>
0.796402990818024

> <s_m_subgroup_title>
glide-dock_SP_other_4988_lib1

> <s_m_subgroupid>
glide-dock_SP_other_4988_lib1

> <b_m_subgroup_collapsed>
0

$$$$
