18635-1
                    3D
 Schrodinger Suite 2021-2.
 44 45  0  0  1  0            999 V2000
   24.6554   10.6947   30.8481 C   0  0  0  0  0  0
   23.3354   11.1703   30.2616 C   0  0  0  0  0  0
   22.3524   11.3152   31.2705 O   0  0  0  0  0  0
   21.5765   10.2399   31.6464 C   0  0  0  0  0  0
   21.8960    9.0142   31.1767 N   0  0  0  0  0  0
   21.1056    7.9552   31.4397 C   0  0  0  0  0  0
   19.9308    8.1094   32.2009 C   0  0  0  0  0  0
   19.6099    9.3700   32.7126 C   0  0  0  0  0  0
   18.4297    9.4975   33.4258 N   0  0  0  0  0  0
   20.4391   10.4648   32.4346 C   0  0  0  0  0  0
   20.0995   11.7989   32.8740 C   0  0  0  0  0  0
   19.8266   12.8576   33.2258 N   0  0  0  0  0  0
   21.5207    6.7104   30.9158 N   0  0  0  0  0  0
   21.0471    5.4708   31.0733 C   0  0  0  0  0  0
   20.0120    5.1996   31.6671 O   0  0  0  0  0  0
   21.8377    4.3618   30.3766 C   0  0  0  0  0  0
   23.3227    4.3678   30.7247 C   0  0  0  0  0  0
   24.2511    5.2709   30.1473 C   0  0  0  0  0  0
   23.8860    6.3068   29.1120 C   0  0  0  0  0  0
   25.6100    5.2092   30.4880 C   0  0  0  0  0  0
   26.0743    4.2344   31.3724 C   0  0  0  0  0  0
   25.1651    3.3236   31.9329 C   0  0  0  0  0  0
   25.6324    2.2578   32.8869 C   0  0  0  0  0  0
   23.8024    3.3897   31.6114 C   0  0  0  0  0  0
   25.4191   10.6606   30.0714 H   0  0  0  0  0  0
   24.5623    9.6893   31.2591 H   0  0  0  0  0  0
   25.0015   11.3583   31.6404 H   0  0  0  0  0  0
   23.4774   12.1518   29.8099 H   0  0  0  0  0  0
   23.0028   10.5209   29.4496 H   0  0  0  0  0  0
   19.2618    7.2906   32.4126 H   0  0  0  0  0  0
   18.0570   10.4099   33.6516 H   0  0  0  0  0  0
   17.7810    8.7274   33.4881 H   0  0  0  0  0  0
   22.3658    6.7501   30.3717 H   0  0  0  0  0  0
   21.4040    3.4009   30.6586 H   0  0  0  0  0  0
   21.6926    4.4372   29.2952 H   0  0  0  0  0  0
   24.7070    6.4148   28.4020 H   0  0  0  0  0  0
   23.0092    6.0304   28.5289 H   0  0  0  0  0  0
   23.7252    7.2865   29.5681 H   0  0  0  0  0  0
   26.3173    5.9002   30.0522 H   0  0  0  0  0  0
   27.1281    4.1817   31.6070 H   0  0  0  0  0  0
   26.5737    2.5373   33.3663 H   0  0  0  0  0  0
   24.8890    2.0927   33.6688 H   0  0  0  0  0  0
   25.7836    1.3187   32.3521 H   0  0  0  0  0  0
   23.1150    2.6721   32.0348 H   0  0  0  0  0  0
  1  2  1  0  0  0
  1 25  1  0  0  0
  1 26  1  0  0  0
  1 27  1  0  0  0
  2  3  1  0  0  0
  2 28  1  0  0  0
  2 29  1  0  0  0
  3  4  1  0  0  0
  4 10  1  0  0  0
  4  5  2  0  0  0
  5  6  1  0  0  0
  6  7  2  0  0  0
  6 13  1  0  0  0
  7  8  1  0  0  0
  7 30  1  0  0  0
  8  9  1  0  0  0
  8 10  2  0  0  0
  9 31  1  0  0  0
  9 32  1  0  0  0
 10 11  1  0  0  0
 11 12  3  0  0  0
 13 14  1  0  0  0
 13 33  1  0  0  0
 14 15  2  0  0  0
 14 16  1  0  0  0
 16 17  1  0  0  0
 16 34  1  0  0  0
 16 35  1  0  0  0
 17 24  1  0  0  0
 17 18  2  0  0  0
 18 19  1  0  0  0
 18 20  1  0  0  0
 19 36  1  0  0  0
 19 37  1  0  0  0
 19 38  1  0  0  0
 20 21  2  0  0  0
 20 39  1  0  0  0
 21 22  1  0  0  0
 21 40  1  0  0  0
 22 23  1  0  0  0
 22 24  2  0  0  0
 23 41  1  0  0  0
 23 42  1  0  0  0
 23 43  1  0  0  0
 24 44  1  0  0  0
M  END
> <i_m_stars>
0

> <s_m_entry_id>
2968

> <s_m_entry_name>
Jnk1_18635-1.1

> <s_m_Source_Path>
C:\Users\yujiethinkpad\Desktop\05A\JNK1

> <s_m_Source_File>
Jnk1_18635-1.sdf

> <i_m_Source_File_Index>
1

> <s_i_glide_gridfile>
glide-grid_JNK1

> <r_i_docking_score>
-7.86154982210906

> <r_i_glide_ecoul>
-6.45673322677612

> <r_i_glide_einternal>
7.55896711349487

> <r_i_glide_emodel>
-48.2960620709735

> <r_i_glide_energy>
-42.3666758537292

> <r_i_glide_erotb>
0.889885637456498

> <r_i_glide_esite>
0

> <r_i_glide_evdw>
-35.9099426269531

> <r_i_glide_gscore>
-7.86154982210906

> <r_i_glide_hbond>
-0.319917480487384

> <r_i_glide_ligand_efficiency>
-0.327564575921211

> <r_i_glide_ligand_efficiency_ln>
-1.88162961544571

> <r_i_glide_ligand_efficiency_sa>
-0.944859736739652

> <r_i_glide_lipo>
-3.56577866795176

> <r_i_glide_metal>
0

> <r_i_glide_rewards>
-2.10173219576235

> <i_i_glide_confnum>
1

> <i_i_glide_lignum>
5

> <i_i_glide_posenum>
258

> <i_i_glide_rotatable_bonds>
6

> <r_i_glide_eff_state_penalty>
0

> <s_m_job_name>
glide-dock_SP_other_4988

> <r_user_dG.exp>
-7.286071

> <r_m_Molecular_weight>
324.3857

> <r_glide_shape_similarity>
0.874387204647064

> <s_m_subgroup_title>
glide-dock_SP_other_4988_lib1

> <s_m_subgroupid>
glide-dock_SP_other_4988_lib1

> <b_m_subgroup_collapsed>
0

$$$$
