18637-1
                    3D
 Schrodinger Suite 2021-2.
 53 54  0  0  1  0            999 V2000
   24.2909   12.3597   30.2094 C   0  0  0  0  0  0
   23.5263   11.0497   30.4356 C   0  0  0  0  0  0
   22.3913   11.3118   31.2691 O   0  0  0  0  0  0
   21.5871   10.2464   31.6423 C   0  0  0  0  0  0
   21.9073    9.0110   31.1737 N   0  0  0  0  0  0
   21.1141    7.9441   31.4355 C   0  0  0  0  0  0
   19.9382    8.0872   32.2163 C   0  0  0  0  0  0
   19.6079    9.3514   32.7303 C   0  0  0  0  0  0
   18.4211    9.4633   33.4624 N   0  0  0  0  0  0
   20.4382   10.4626   32.4383 C   0  0  0  0  0  0
   20.0875   11.7958   32.8956 C   0  0  0  0  0  0
   19.7924   12.8415   33.2673 N   0  0  0  0  0  0
   21.5316    6.6881   30.9009 N   0  0  0  0  0  0
   21.0405    5.4369   31.0885 C   0  0  0  0  0  0
   19.9839    5.2018   31.6582 O   0  0  0  0  0  0
   21.8014    4.2456   30.4649 C   0  0  0  0  0  0
   23.3045    4.2524   30.7886 C   0  0  0  0  0  0
   23.9278    3.2629   31.6047 C   0  0  0  0  0  0
   23.1556    2.2213   32.0751 O   0  0  0  0  0  0
   23.7276    1.2507   32.9555 C   0  0  0  0  0  0
   25.3252    3.3519   31.8408 C   0  0  0  0  0  0
   26.1085    4.3820   31.2685 C   0  0  0  0  0  0
   25.4853    5.3758   30.4557 C   0  0  0  0  0  0
   24.1007    5.2572   30.1949 C   0  0  0  0  0  0
   26.2314    6.4225   29.9533 O   0  0  0  0  0  0
   25.5629    7.5848   29.4607 C   0  0  0  0  0  0
   27.4799    4.3732   31.6822 N   0  0  0  0  0  0
   28.5856    4.9531   31.1666 C   0  0  0  0  0  0
   28.7101    5.3406   30.0003 O   0  0  0  0  0  0
   29.7781    5.0450   32.1303 C   0  0  0  0  0  0
   25.1198   12.2496   29.5130 H   0  0  0  0  0  0
   24.7167   12.6920   31.1571 H   0  0  0  0  0  0
   23.6523   13.1693   29.8561 H   0  0  0  0  0  0
   23.2199   10.6271   29.4725 H   0  0  0  0  0  0
   24.1978   10.3403   30.9185 H   0  0  0  0  0  0
   19.2789    7.2643   32.4405 H   0  0  0  0  0  0
   18.0178   10.3723   33.6709 H   0  0  0  0  0  0
   17.8089    8.6711   33.6204 H   0  0  0  0  0  0
   22.3835    6.7403   30.3636 H   0  0  0  0  0  0
   21.3456    3.2902   30.7365 H   0  0  0  0  0  0
   21.6260    4.3374   29.3868 H   0  0  0  0  0  0
   23.0084    0.4365   33.0849 H   0  0  0  0  0  0
   24.6402    0.8069   32.5622 H   0  0  0  0  0  0
   23.9011    1.6591   33.9469 H   0  0  0  0  0  0
   25.8270    2.6258   32.4623 H   0  0  0  0  0  0
   23.6350    5.9498   29.5158 H   0  0  0  0  0  0
   26.2862    8.3918   29.3543 H   0  0  0  0  0  0
   25.1539    7.3881   28.4742 H   0  0  0  0  0  0
   24.7802    7.9254   30.1376 H   0  0  0  0  0  0
   27.6215    3.9262   32.5769 H   0  0  0  0  0  0
   30.5923    4.3748   31.8619 H   0  0  0  0  0  0
   30.1713    6.0625   32.1433 H   0  0  0  0  0  0
   29.4780    4.7967   33.1516 H   0  0  0  0  0  0
  1  2  1  0  0  0
  1 31  1  0  0  0
  1 32  1  0  0  0
  1 33  1  0  0  0
  2  3  1  0  0  0
  2 34  1  0  0  0
  2 35  1  0  0  0
  3  4  1  0  0  0
  4 10  1  0  0  0
  4  5  2  0  0  0
  5  6  1  0  0  0
  6  7  2  0  0  0
  6 13  1  0  0  0
  7  8  1  0  0  0
  7 36  1  0  0  0
  8  9  1  0  0  0
  8 10  2  0  0  0
  9 37  1  0  0  0
  9 38  1  0  0  0
 10 11  1  0  0  0
 11 12  3  0  0  0
 13 14  1  0  0  0
 13 39  1  0  0  0
 14 15  2  0  0  0
 14 16  1  0  0  0
 16 17  1  0  0  0
 16 40  1  0  0  0
 16 41  1  0  0  0
 17 24  1  0  0  0
 17 18  2  0  0  0
 18 19  1  0  0  0
 18 21  1  0  0  0
 19 20  1  0  0  0
 20 42  1  0  0  0
 20 43  1  0  0  0
 20 44  1  0  0  0
 21 22  2  0  0  0
 21 45  1  0  0  0
 22 23  1  0  0  0
 22 27  1  0  0  0
 23 24  2  0  0  0
 23 25  1  0  0  0
 24 46  1  0  0  0
 25 26  1  0  0  0
 26 47  1  0  0  0
 26 48  1  0  0  0
 26 49  1  0  0  0
 27 28  1  0  0  0
 27 50  1  0  0  0
 28 29  2  0  0  0
 28 30  1  0  0  0
 30 51  1  0  0  0
 30 52  1  0  0  0
 30 53  1  0  0  0
M  END
> <i_m_stars>
0

> <s_m_entry_id>
2978

> <s_m_entry_name>
Jnk1_18637-1.1

> <s_m_Source_Path>
C:\Users\yujiethinkpad\Desktop\05A\JNK1

> <s_m_Source_File>
Jnk1_18637-1.sdf

> <i_m_Source_File_Index>
1

> <s_i_glide_gridfile>
glide-grid_JNK1

> <r_i_docking_score>
-7.60829023686508

> <r_i_glide_ecoul>
-5.62870645523071

> <r_i_glide_einternal>
12.3171215057373

> <r_i_glide_emodel>
-53.005524445349

> <r_i_glide_energy>
-46.3277993202209

> <r_i_glide_erotb>
0.692531556498704

> <r_i_glide_esite>
0

> <r_i_glide_evdw>
-40.6990928649902

> <r_i_glide_gscore>
-7.60829023686508

> <r_i_glide_hbond>
-0.398926305890402

> <r_i_glide_ligand_efficiency>
-0.253609674562169

> <r_i_glide_ligand_efficiency_ln>
-1.72868644077756

> <r_i_glide_ligand_efficiency_sa>
-0.788024223730543

> <r_i_glide_lipo>
-3.47282456136293

> <r_i_glide_metal>
0

> <r_i_glide_rewards>
-1.54981031457633

> <i_i_glide_confnum>
13

> <i_i_glide_lignum>
7

> <i_i_glide_posenum>
295

> <i_i_glide_rotatable_bonds>
10

> <r_i_glide_eff_state_penalty>
0

> <s_m_job_name>
glide-dock_SP_other_4988

> <r_user_dG.exp>
-10.141692

> <r_m_Molecular_weight>
413.43681

> <r_glide_shape_similarity>
0.912247896194458

> <s_m_subgroup_title>
glide-dock_SP_other_4988_lib1

> <s_m_subgroupid>
glide-dock_SP_other_4988_lib1

> <b_m_subgroup_collapsed>
0

$$$$
