ejm_43
                    3D
 Schrodinger Suite 2021-2.
 38 39  0  0  1  0            999 V2000
   -1.9126   21.5510  -27.3856 C   0  0  0  0  0  0
   -1.2729   22.4413  -28.2466 C   0  0  0  0  0  0
   -1.9568   23.0154  -29.3137 C   0  0  0  0  0  0
   -3.3076   22.6806  -29.5252 C   0  0  0  0  0  0
   -3.9432   21.7942  -28.6345 C   0  0  0  0  0  0
   -3.2438   21.2228  -27.5799 C   0  0  0  0  0  0
   -5.6247   21.4482  -28.8272 Cl  0  0  0  0  0  0
   -4.1012   23.1837  -30.6663 C   0  0  0  0  0  0
   -4.4271   22.3836  -31.5491 O   0  0  0  0  0  0
   -4.4757   24.4742  -30.6727 N   0  0  0  0  0  0
   -5.2721   25.1291  -31.6161 C   0  0  0  0  0  0
   -5.9130   24.5210  -32.7164 C   0  0  0  0  0  0
   -6.7627   25.2942  -33.5059 C   0  0  0  0  0  0
   -6.9364   26.5887  -33.2427 N   0  0  0  0  0  0
   -6.3458   27.2122  -32.2223 C   0  0  0  0  0  0
   -5.5150   26.4796  -31.3701 C   0  0  0  0  0  0
   -6.6251   28.6307  -32.0186 N   0  0  0  0  0  0
   -5.8853   29.4689  -31.2920 C   0  0  0  0  0  0
   -4.8653   29.1203  -30.7048 O   0  0  0  0  0  0
   -6.4540   30.8569  -31.2906 C   0  0  0  0  0  0
   -1.1245   24.1655  -30.3148 Cl  0  0  0  0  0  0
   -5.8763   31.6352  -32.4354 C   0  0  0  0  0  0
   -1.3696   21.1124  -26.5607 H   0  0  0  0  0  0
   -0.2341   22.6925  -28.0890 H   0  0  0  0  0  0
   -3.7310   20.5264  -26.9128 H   0  0  0  0  0  0
   -4.1746   25.0909  -29.9317 H   0  0  0  0  0  0
   -5.7404   23.4767  -32.9317 H   0  0  0  0  0  0
   -7.2855   24.8447  -34.3373 H   0  0  0  0  0  0
   -5.0603   26.9632  -30.5181 H   0  0  0  0  0  0
   -7.4691   28.8746  -32.5168 H   0  0  0  0  0  0
   -6.1092   31.5373  -29.9990 C   0  0  0  0  0  0
   -7.5377   30.8056  -31.3962 H   0  0  0  0  0  0
   -6.5290   30.9717  -29.1671 H   0  0  0  0  0  0
   -5.0255   31.5885  -29.8934 H   0  0  0  0  0  0
   -6.5225   32.5459  -29.9980 H   0  0  0  0  0  0
   -6.1269   31.1408  -33.3740 H   0  0  0  0  0  0
   -6.2896   32.6438  -32.4344 H   0  0  0  0  0  0
   -4.7927   31.6864  -32.3298 H   0  0  0  0  0  0
  1  2  1  0  0  0
  1  6  2  0  0  0
  1 23  1  0  0  0
  2  3  2  0  0  0
  2 24  1  0  0  0
  3  4  1  0  0  0
  3 21  1  0  0  0
  4  5  2  0  0  0
  4  8  1  0  0  0
  5  6  1  0  0  0
  5  7  1  0  0  0
  6 25  1  0  0  0
  8  9  2  0  0  0
  8 10  1  0  0  0
 10 11  1  0  0  0
 10 26  1  0  0  0
 11 12  1  0  0  0
 11 16  2  0  0  0
 12 13  2  0  0  0
 12 27  1  0  0  0
 13 14  1  0  0  0
 13 28  1  0  0  0
 14 15  2  0  0  0
 15 16  1  0  0  0
 15 17  1  0  0  0
 16 29  1  0  0  0
 17 18  1  0  0  0
 17 30  1  0  0  0
 18 19  2  0  0  0
 18 20  1  0  0  0
 20 22  1  0  0  0
 20 31  1  0  0  0
 20 32  1  0  0  0
 22 36  1  0  0  0
 22 37  1  0  0  0
 22 38  1  0  0  0
 31 33  1  0  0  0
 31 34  1  0  0  0
 31 35  1  0  0  0
M  END
> <s_m_entry_id>
712

> <s_m_entry_name>
Tyk2_ejm_43.1

> <r_user_dG.exp>
-8.26

> <r_m_Molecular_weight>
352.22285

> <s_m_Source_Path>
C:\Users\yujiethinkpad\Desktop\05A\Tyk2

> <s_m_Source_File>
Tyk2_ejm_43.sdf

> <i_m_Source_File_Index>
1

> <s_m_job_name>
align_ligands_0000

> <i_phase_Input_Structure_Number>
11

> <i_phase_Structure_Number>
11

> <r_phase_Similarity_to_Reference>
0.941651256592222

> <i_phase_Reference_Structure>
1

> <s_phase_Alignment_Method>
snapped core

> <s_phase_Alignment_Reason>


> <s_phase_Core_SMARTS>
a1aaaaa1A(=A)Aa2aaaaa2

> <s_f3d_frozen_atoms>
5 6 1 2 3 4 8 9 10 11 12 13 14 15 16 7 25 23 24 21 9 26 27 28 29

> <s_fepmapper_entryid>
7

> <i_fepmapper_bias>
0

> <i_fepmapper_affinity>
1

> <r_fepmapper_exp_dG>
-8.26

> <i_fepmapper_unit>
1

> <s_m_subgroup_title>
align_ligands_0000

> <s_m_subgroupid>
align_ligands_0000

> <b_m_subgroup_collapsed>
0

$$$$
