jmc_30
                    3D
 Schrodinger Suite 2021-2.
 37 39  0  0  1  0            999 V2000
   -1.9126   21.5510  -27.3856 C   0  0  0  0  0  0
   -1.2729   22.4413  -28.2466 C   0  0  0  0  0  0
   -1.9568   23.0154  -29.3137 C   0  0  0  0  0  0
   -3.3076   22.6806  -29.5252 C   0  0  0  0  0  0
   -3.9432   21.7942  -28.6345 C   0  0  0  0  0  0
   -3.2438   21.2228  -27.5799 C   0  0  0  0  0  0
   -5.6247   21.4482  -28.8272 Cl  0  0  0  0  0  0
   -4.1012   23.1837  -30.6663 C   0  0  0  0  0  0
   -4.4271   22.3836  -31.5491 O   0  0  0  0  0  0
   -4.4757   24.4742  -30.6727 N   0  0  0  0  0  0
   -5.2721   25.1291  -31.6161 C   0  0  0  0  0  0
   -5.9130   24.5210  -32.7164 C   0  0  0  0  0  0
   -6.7627   25.2942  -33.5059 C   0  0  0  0  0  0
   -6.9364   26.5887  -33.2427 N   0  0  0  0  0  0
   -6.3458   27.2122  -32.2223 C   0  0  0  0  0  0
   -5.5150   26.4796  -31.3701 C   0  0  0  0  0  0
   -6.5890   28.5867  -32.0076 N   0  0  0  0  0  0
   -5.7763   29.4185  -31.2872 C   0  0  0  0  0  0
   -4.7619   29.0024  -30.7581 O   0  0  0  0  0  0
   -6.1367   30.8904  -31.1308 C   0  0  1  0  0  0
   -5.6968   31.6304  -29.8600 C   0  0  0  0  0  0
   -5.0080   31.9275  -31.1891 C   0  0  1  0  0  0
   -3.5998   31.4384  -31.3555 C   0  0  0  0  0  0
   -1.1245   24.1655  -30.3148 Cl  0  0  0  0  0  0
   -7.1011   31.1535  -31.5541 H   0  0  0  0  0  0
   -5.2241   32.8877  -31.6542 H   0  0  0  0  0  0
   -1.3696   21.1124  -26.5607 H   0  0  0  0  0  0
   -0.2341   22.6925  -28.0890 H   0  0  0  0  0  0
   -3.7310   20.5264  -26.9128 H   0  0  0  0  0  0
   -4.1746   25.0909  -29.9317 H   0  0  0  0  0  0
   -5.7404   23.4767  -32.9317 H   0  0  0  0  0  0
   -7.2855   24.8447  -34.3373 H   0  0  0  0  0  0
   -5.0603   26.9632  -30.5181 H   0  0  0  0  0  0
   -7.4130   29.0218  -32.3991 H   0  0  0  0  0  0
   -6.5409   32.1882  -29.4530 H   0  0  0  0  0  0
   -5.3478   30.9087  -29.1205 H   0  0  0  0  0  0
   -2.5211   31.0351  -31.4671 N   0  0  0  0  0  0
  1  2  1  0  0  0
  1  6  2  0  0  0
  1 27  1  0  0  0
  2  3  2  0  0  0
  2 28  1  0  0  0
  3  4  1  0  0  0
  3 24  1  0  0  0
  4  5  2  0  0  0
  4  8  1  0  0  0
  5  6  1  0  0  0
  5  7  1  0  0  0
  6 29  1  0  0  0
  8  9  2  0  0  0
  8 10  1  0  0  0
 10 11  1  0  0  0
 10 30  1  0  0  0
 11 12  1  0  0  0
 11 16  2  0  0  0
 12 13  2  0  0  0
 12 31  1  0  0  0
 13 14  1  0  0  0
 13 32  1  0  0  0
 14 15  2  0  0  0
 15 16  1  0  0  0
 15 17  1  0  0  0
 16 33  1  0  0  0
 17 18  1  0  0  0
 17 34  1  0  0  0
 18 19  2  0  0  0
 18 20  1  0  0  0
 20 21  1  0  0  0
 20 22  1  0  0  0
 20 25  1  0  0  0
 21 22  1  0  0  0
 21 35  1  0  0  0
 21 36  1  0  0  0
 22 23  1  0  0  0
 22 26  1  0  0  0
 23 37  3  0  0  0
M  END
> <s_m_entry_id>
710

> <s_m_entry_name>
Tyk2_jmc_30.1

> <r_user_dG.exp>
-10.94

> <r_m_Molecular_weight>
375.21679

> <s_m_Source_Path>
C:\Users\yujiethinkpad\Desktop\05A\Tyk2

> <s_m_Source_File>
Tyk2_jmc_30.sdf

> <i_m_Source_File_Index>
1

> <s_m_job_name>
align_ligands_0000

> <i_phase_Input_Structure_Number>
9

> <i_phase_Structure_Number>
9

> <r_phase_Similarity_to_Reference>
0.93868600866914

> <i_phase_Reference_Structure>
1

> <s_phase_Alignment_Method>
snapped core

> <s_phase_Alignment_Reason>


> <s_phase_Core_SMARTS>
A1AA1A(=A)Aa2aaaa(a2)AA(=A)a3aaaaa3

> <s_f3d_frozen_atoms>
21 22 20 18 19 17 15 14 13 12 11 16 10 8 9 4 5 6 1 2 3 35 36 26 25 19 34 32 31 33 30 9 7 29 27 28 24

> <s_fepmapper_entryid>
3

> <i_fepmapper_bias>
0

> <i_fepmapper_affinity>
1

> <r_fepmapper_exp_dG>
-10.94

> <i_fepmapper_unit>
1

> <s_m_subgroup_title>
align_ligands_0000

> <s_m_subgroupid>
align_ligands_0000

> <b_m_subgroup_collapsed>
0

$$$$
