/home/yujie/leadopt/data/result/selection/CDK9/lig_32.sdf:1
                    3D
 Schrodinger Suite 2021-2.
 62 65  0  0  1  0            999 V2000
  -41.4162  -35.5699   -0.1514 C   0  0  0  0  0  0
  -41.4721  -34.6859   -1.4403 C   0  0  0  0  0  0
  -42.8987  -34.6801   -2.0412 C   0  0  0  0  0  0
  -40.4967  -35.0987   -2.4756 N   0  0  0  0  0  0
  -40.0044  -34.2312   -3.4300 C   0  0  0  0  0  0
  -40.2631  -33.0269   -3.4784 O   0  0  0  0  0  0
  -39.1444  -34.8808   -4.4241 C   0  0  0  0  0  0
  -38.8782  -36.2065   -4.3864 C   0  0  0  0  0  0
  -39.4927  -37.0148   -3.3476 C   0  0  0  0  0  0
  -40.2380  -36.4599   -2.4567 N   0  0  0  0  0  0
  -39.2863  -38.4686   -3.2526 C   0  0  0  0  0  0
  -37.9892  -39.0039   -3.4107 C   0  0  0  0  0  0
  -37.8334  -40.4063   -3.3403 C   0  0  0  0  0  0
  -38.8494  -41.2877   -3.1713 N   0  0  0  0  0  0
  -40.0807  -40.7149   -3.0492 C   0  0  0  0  0  0
  -40.3962  -39.3232   -3.0544 C   0  0  0  0  0  0
  -41.8111  -39.1810   -2.8711 C   0  0  0  0  0  0
  -42.2995  -40.4529   -2.7383 C   0  0  0  0  0  0
  -41.2643  -41.3741   -2.8224 N   0  0  0  0  0  0
  -43.7062  -40.8685   -2.6265 C   0  0  1  0  0  0
  -43.9569  -42.0451   -3.5484 C   0  0  0  0  0  0
  -45.4316  -42.1162   -3.7410 C   0  0  0  0  0  0
  -46.1687  -42.3738   -2.4570 N   0  3  1  0  0  0
  -45.7286  -41.5332   -1.2749 C   0  0  0  0  0  0
  -44.2026  -41.2728   -1.2299 C   0  0  0  0  0  0
  -47.6415  -42.2778   -2.6944 C   0  0  0  0  0  0
  -48.0465  -42.9289   -4.0430 C   0  0  0  0  0  0
  -47.7575  -44.1216   -4.2027 O   0  0  0  0  0  0
  -48.5385  -42.1671   -5.0580 N   0  0  0  0  0  0
  -48.7400  -42.7596   -6.3928 C   0  0  0  0  0  0
  -48.7489  -40.7134   -4.9682 C   0  0  0  0  0  0
  -41.3860  -42.3803   -2.7280 H   0  0  0  0  0  0
  -42.1143  -35.2040    0.5982 H   0  0  0  0  0  0
  -41.6935  -36.6061   -0.3450 H   0  0  0  0  0  0
  -40.4259  -35.5567    0.3003 H   0  0  0  0  0  0
  -41.2500  -33.6619   -1.1367 H   0  0  0  0  0  0
  -43.6380  -34.3939   -1.2925 H   0  0  0  0  0  0
  -42.9780  -33.9681   -2.8613 H   0  0  0  0  0  0
  -43.1717  -35.6627   -2.4217 H   0  0  0  0  0  0
  -38.6965  -34.2763   -5.1978 H   0  0  0  0  0  0
  -38.2344  -36.6677   -5.1221 H   0  0  0  0  0  0
  -37.1303  -38.3658   -3.5669 H   0  0  0  0  0  0
  -36.8470  -40.8321   -3.4400 H   0  0  0  0  0  0
  -42.3680  -38.2555   -2.8534 H   0  0  0  0  0  0
  -44.2992  -40.0132   -2.9599 H   0  0  0  0  0  0
  -43.5537  -42.9785   -3.1479 H   0  0  0  0  0  0
  -43.5111  -41.8996   -4.5268 H   0  0  0  0  0  0
  -45.5647  -42.9041   -4.4806 H   0  0  0  0  0  0
  -45.7775  -41.1850   -4.1913 H   0  0  0  0  0  0
  -46.2177  -40.5598   -1.3437 H   0  0  0  0  0  0
  -46.0500  -41.9647   -0.3129 H   0  0  0  0  0  0
  -43.9799  -40.4876   -0.5119 H   0  0  0  0  0  0
  -43.6773  -42.1647   -0.8909 H   0  0  0  0  0  0
  -47.9546  -41.2405   -2.6197 H   0  0  0  0  0  0
  -48.1604  -42.8028   -1.8935 H   0  0  0  0  0  0
  -47.7879  -43.1176   -6.7918 H   0  0  0  0  0  0
  -49.1489  -42.0532   -7.1132 H   0  0  0  0  0  0
  -49.4246  -43.6083   -6.3436 H   0  0  0  0  0  0
  -49.3768  -40.4590   -4.1137 H   0  0  0  0  0  0
  -47.7990  -40.1857   -4.8772 H   0  0  0  0  0  0
  -49.2434  -40.3154   -5.8527 H   0  0  0  0  0  0
  -45.9582  -43.3391   -2.2165 H   0  0  0  0  0  0
  1  2  1  0  0  0
  1 33  1  0  0  0
  1 34  1  0  0  0
  1 35  1  0  0  0
  2  3  1  0  0  0
  2  4  1  0  0  0
  2 36  1  0  0  0
  3 37  1  0  0  0
  3 38  1  0  0  0
  3 39  1  0  0  0
  4 10  1  0  0  0
  4  5  1  0  0  0
  5  6  2  0  0  0
  5  7  1  0  0  0
  7  8  2  0  0  0
  7 40  1  0  0  0
  8  9  1  0  0  0
  8 41  1  0  0  0
  9 10  2  0  0  0
  9 11  1  0  0  0
 11 16  1  0  0  0
 11 12  2  0  0  0
 12 13  1  0  0  0
 12 42  1  0  0  0
 13 14  2  0  0  0
 13 43  1  0  0  0
 14 15  1  0  0  0
 15 19  1  0  0  0
 15 16  2  0  0  0
 16 17  1  0  0  0
 17 18  2  0  0  0
 17 44  1  0  0  0
 18 19  1  0  0  0
 18 20  1  0  0  0
 19 32  1  0  0  0
 20 25  1  0  0  0
 20 21  1  0  0  0
 20 45  1  0  0  0
 21 22  1  0  0  0
 21 46  1  0  0  0
 21 47  1  0  0  0
 22 23  1  0  0  0
 22 48  1  0  0  0
 22 49  1  0  0  0
 23 24  1  0  0  0
 23 26  1  0  0  0
 23 62  1  0  0  0
 24 25  1  0  0  0
 24 50  1  0  0  0
 24 51  1  0  0  0
 25 52  1  0  0  0
 25 53  1  0  0  0
 26 27  1  0  0  0
 26 54  1  0  0  0
 26 55  1  0  0  0
 27 28  2  0  0  0
 27 29  1  0  0  0
 29 30  1  0  0  0
 29 31  1  0  0  0
 30 56  1  0  0  0
 30 57  1  0  0  0
 30 58  1  0  0  0
 31 59  1  0  0  0
 31 60  1  0  0  0
 31 61  1  0  0  0
M  CHG  1  23   1
M  END
> <s_m_entry_id>
250

> <s_m_entry_name>
CDK9_lig_32.1

> <s_m_Source_Path>
C:\Users\yujiethinkpad\Desktop\selection\selection\CDK9_pose

> <s_m_Source_File>
CDK9_lig_32.sdf

> <i_m_Source_File_Index>
1

> <i_lp_mmshare_version>
51139

> <i_f3d_flags>
0

> <s_epik_input>
W0NIM11bQ0hdKFtDSDNdKW4xYyg9TylbY0hdW2NIXWMobjEpLWMoW2NIXVtjSF1uMiljKGMyMylbY0hdYyhbbkhdMylbQ0hdNFtDSDJdW0NIMl1OKFtDSDJdW0NIMl00KVtDSDJdQyg9TylOKFtDSDNdKVtDSDNd

> <s_epik_cmdline>
J2VwaWtfcHl0aG9uJywgJy1waHQnLCAnMi4wJywgJy1waCcsICc3LjAnLCAnLXRuJywgJzgnLCAnLW1hJywgJzIwMCcsICctaW1hZScsICc8aW5maWxlLm1hZT4nLCAnLW9tYWUnLCAnPG91dGZpbGUubWFlPic=

> <r_epik_Ionization_Penalty>
  0.0807

> <r_epik_Ionization_Penalty_Charging>
  0.0781

> <r_epik_Ionization_Penalty_Neutral>
  0.0027

> <r_epik_State_Penalty>
  0.0670

> <r_epik_Charging_Adjusted_Penalty>
0.145037

> <i_epik_Tot_Q>
1

> <i_epik_Tot_abs_Q>
1

> <s_lp_Force_Field>
OPLS3e

> <r_lp_Energy>
65.9889

> <b_lp_Chiralities_Consistent>
1

> <s_lp_Variant>
/home/yujie/leadopt/data/result/selection/CDK9/lig_32.sdf:1-1

> <s_i_glide_gridfile>
glide-grid_CDK9

> <i_i_glide_lignum>
30

> <i_i_glide_rotatable_bonds>
6

> <r_i_docking_score>
-8.58734622517602

> <r_i_glide_ligand_efficiency>
-0.277011168554065

> <r_i_glide_ligand_efficiency_sa>
-0.870197524395989

> <r_i_glide_ligand_efficiency_ln>
-1.9367097443334

> <r_i_glide_gscore>
-8.65434622517602

> <r_i_glide_lipo>
-2.87844267622699

> <r_i_glide_hbond>
-0.476692619037179

> <r_i_glide_metal>
0

> <r_i_glide_rewards>
-2.10547108908574

> <r_i_glide_evdw>
-46.1018981933594

> <r_i_glide_ecoul>
-7.98636627197266

> <r_i_glide_erotb>
0.309382727657565

> <r_i_glide_esite>
-7.2718019798706e-05

> <r_i_glide_emodel>
-68.7720932158736

> <r_i_glide_energy>
-54.088264465332

> <r_i_glide_einternal>
4.65055751800537

> <i_i_glide_confnum>
15

> <i_i_glide_posenum>
384

> <r_i_glide_eff_state_penalty>
0.067

> <r_lp_tautomer_probability>
0.999998

> <s_m_job_name>
glide-dock_SP_all

> <r_glide_shape_similarity>
0.824499011039734

> <s_m_subgroup_title>
glide-dock_SP_all_lib1

> <s_m_subgroupid>
glide-dock_SP_all_lib1

> <b_m_subgroup_collapsed>
0

$$$$
