/home/yujie/leadopt/data/result/selection/CDK9/lig_39.sdf:1
                    3D
 Schrodinger Suite 2021-2.
 67 71  0  0  1  0            999 V2000
  -41.9716  -34.9332   -0.3177 C   0  0  0  0  0  0
  -41.8178  -34.3936   -1.7717 C   0  0  0  0  0  0
  -43.1406  -34.5500   -2.5679 C   0  0  0  0  0  0
  -40.6916  -34.9731   -2.5474 N   0  0  0  0  0  0
  -40.4922  -36.3716   -2.4693 C   0  0  0  0  0  0
  -39.6163  -37.0267   -3.2490 C   0  0  0  0  0  0
  -38.8566  -36.2338   -4.2000 C   0  0  0  0  0  0
  -39.0432  -34.9063   -4.3049 C   0  0  0  0  0  0
  -39.9998  -34.1997   -3.4543 C   0  0  0  0  0  0
  -40.1750  -32.9847   -3.5861 O   0  0  0  0  0  0
  -39.4394  -38.4888   -3.1939 C   0  0  0  0  0  0
  -38.1279  -39.0070   -3.3249 C   0  0  0  0  0  0
  -37.9241  -40.3994   -3.2900 C   0  0  0  0  0  0
  -38.9142  -41.3092   -3.1676 N   0  0  0  0  0  0
  -40.1592  -40.7740   -3.0492 C   0  0  0  0  0  0
  -40.5298  -39.3959   -3.0316 C   0  0  0  0  0  0
  -41.9695  -39.3567   -2.8498 C   0  0  0  0  0  0
  -42.3880  -40.6606   -2.6701 C   0  0  0  0  0  0
  -41.3059  -41.4982   -2.8410 N   0  0  0  0  0  0
  -43.7111  -41.2772   -2.3199 C   0  0  1  0  0  0
  -44.8269  -40.2445   -2.0394 C   0  0  0  0  0  0
  -46.2071  -40.9154   -1.8649 C   0  0  0  0  0  0
  -46.4884  -41.7563   -3.0578 N   0  3  1  0  0  0
  -45.5305  -42.8827   -3.1381 C   0  0  0  0  0  0
  -44.1304  -42.3186   -3.3928 C   0  0  0  0  0  0
  -47.9004  -42.1407   -3.2531 C   0  0  0  0  0  0
  -48.4078  -41.4974   -4.5558 C   0  0  0  0  0  0
  -48.6443  -40.2879   -4.5472 O   0  0  0  0  0  0
  -48.5767  -42.2543   -5.6651 N   0  0  0  0  0  0
  -48.1457  -43.6556   -5.8487 C   0  0  0  0  0  0
  -48.7234  -44.1048   -7.2040 C   0  0  0  0  0  0
  -48.9605  -42.8008   -7.9827 C   0  0  0  0  0  0
  -49.2119  -41.7389   -6.8925 C   0  0  0  0  0  0
  -41.3653  -42.5099   -2.7270 H   0  0  0  0  0  0
  -42.7910  -34.4010    0.1607 H   0  0  0  0  0  0
  -42.2275  -35.9922   -0.2531 H   0  0  0  0  0  0
  -41.0875  -34.7514    0.2896 H   0  0  0  0  0  0
  -41.6414  -33.3241   -1.6538 H   0  0  0  0  0  0
  -43.9617  -34.0426   -2.0570 H   0  0  0  0  0  0
  -43.0615  -34.1226   -3.5708 H   0  0  0  0  0  0
  -43.4191  -35.6007   -2.6738 H   0  0  0  0  0  0
  -41.1101  -36.8956   -1.7594 H   0  0  0  0  0  0
  -38.1458  -36.7119   -4.8568 H   0  0  0  0  0  0
  -38.4725  -34.3484   -5.0294 H   0  0  0  0  0  0
  -37.2772  -38.3502   -3.4336 H   0  0  0  0  0  0
  -36.9232  -40.7923   -3.3860 H   0  0  0  0  0  0
  -42.5758  -38.4654   -2.7922 H   0  0  0  0  0  0
  -43.5726  -41.8303   -1.3897 H   0  0  0  0  0  0
  -44.8880  -39.5399   -2.8699 H   0  0  0  0  0  0
  -44.5822  -39.6557   -1.1550 H   0  0  0  0  0  0
  -46.9668  -40.1403   -1.7622 H   0  0  0  0  0  0
  -46.2383  -41.5165   -0.9543 H   0  0  0  0  0  0
  -45.5620  -43.4848   -2.2275 H   0  0  0  0  0  0
  -45.7917  -43.5487   -3.9592 H   0  0  0  0  0  0
  -43.4123  -43.1380   -3.4196 H   0  0  0  0  0  0
  -44.1142  -41.8807   -4.3904 H   0  0  0  0  0  0
  -48.5114  -41.7588   -2.4325 H   0  0  0  0  0  0
  -48.0304  -43.2230   -3.2231 H   0  0  0  0  0  0
  -48.5012  -44.3147   -5.0565 H   0  0  0  0  0  0
  -47.0538  -43.6981   -5.8801 H   0  0  0  0  0  0
  -49.6804  -44.5979   -7.0385 H   0  0  0  0  0  0
  -48.0723  -44.7984   -7.7359 H   0  0  0  0  0  0
  -48.0668  -42.5592   -8.5562 H   0  0  0  0  0  0
  -49.7917  -42.8765   -8.6866 H   0  0  0  0  0  0
  -48.8289  -40.7624   -7.1889 H   0  0  0  0  0  0
  -50.2801  -41.6310   -6.7084 H   0  0  0  0  0  0
  -46.2997  -41.1613   -3.8554 H   0  0  0  0  0  0
  1  2  1  0  0  0
  1 35  1  0  0  0
  1 36  1  0  0  0
  1 37  1  0  0  0
  2  3  1  0  0  0
  2  4  1  0  0  0
  2 38  1  0  0  0
  3 39  1  0  0  0
  3 40  1  0  0  0
  3 41  1  0  0  0
  4  9  1  0  0  0
  4  5  1  0  0  0
  5  6  2  0  0  0
  5 42  1  0  0  0
  6  7  1  0  0  0
  6 11  1  0  0  0
  7  8  2  0  0  0
  7 43  1  0  0  0
  8  9  1  0  0  0
  8 44  1  0  0  0
  9 10  2  0  0  0
 11 16  1  0  0  0
 11 12  2  0  0  0
 12 13  1  0  0  0
 12 45  1  0  0  0
 13 14  2  0  0  0
 13 46  1  0  0  0
 14 15  1  0  0  0
 15 19  1  0  0  0
 15 16  2  0  0  0
 16 17  1  0  0  0
 17 18  2  0  0  0
 17 47  1  0  0  0
 18 19  1  0  0  0
 18 20  1  0  0  0
 19 34  1  0  0  0
 20 25  1  0  0  0
 20 21  1  0  0  0
 20 48  1  0  0  0
 21 22  1  0  0  0
 21 49  1  0  0  0
 21 50  1  0  0  0
 22 23  1  0  0  0
 22 51  1  0  0  0
 22 52  1  0  0  0
 23 24  1  0  0  0
 23 26  1  0  0  0
 23 67  1  0  0  0
 24 25  1  0  0  0
 24 53  1  0  0  0
 24 54  1  0  0  0
 25 55  1  0  0  0
 25 56  1  0  0  0
 26 27  1  0  0  0
 26 57  1  0  0  0
 26 58  1  0  0  0
 27 28  2  0  0  0
 27 29  1  0  0  0
 29 33  1  0  0  0
 29 30  1  0  0  0
 30 31  1  0  0  0
 30 59  1  0  0  0
 30 60  1  0  0  0
 31 32  1  0  0  0
 31 61  1  0  0  0
 31 62  1  0  0  0
 32 33  1  0  0  0
 32 63  1  0  0  0
 32 64  1  0  0  0
 33 65  1  0  0  0
 33 66  1  0  0  0
M  CHG  1  23   1
M  END
> <s_m_entry_id>
247

> <s_m_entry_name>
CDK9_lig_39.1

> <s_m_Source_Path>
C:\Users\yujiethinkpad\Desktop\selection\selection\CDK9_pose

> <s_m_Source_File>
CDK9_lig_39.sdf

> <i_m_Source_File_Index>
1

> <i_lp_mmshare_version>
51139

> <i_f3d_flags>
0

> <s_epik_input>
W0NIM11bQ0hdKFtDSDNdKW4xW2NIXWMoW2NIXVtjSF1jMT1PKS1jKFtjSF1bY0hdbjIpYyhjMjMpW2NIXWMoW25IXTMpW0NIXTRbQ0gyXVtDSDJdTihbQ0gyXVtDSDJdNClbQ0gyXUMoPU8pTjVbQ0gyXVtDSDJdW0NIMl1bQ0gyXTU=

> <s_epik_cmdline>
J2VwaWtfcHl0aG9uJywgJy1waHQnLCAnMi4wJywgJy1waCcsICc3LjAnLCAnLXRuJywgJzgnLCAnLW1hJywgJzIwMCcsICctaW1hZScsICc8aW5maWxlLm1hZT4nLCAnLW9tYWUnLCAnPG91dGZpbGUubWFlPic=

> <r_epik_Ionization_Penalty>
  0.0713

> <r_epik_Ionization_Penalty_Charging>
  0.0702

> <r_epik_Ionization_Penalty_Neutral>
  0.0011

> <r_epik_State_Penalty>
  0.0616

> <r_epik_Charging_Adjusted_Penalty>
0.131787

> <i_epik_Tot_Q>
1

> <i_epik_Tot_abs_Q>
1

> <s_lp_Force_Field>
OPLS3e

> <r_lp_Energy>
68.7665

> <b_lp_Chiralities_Consistent>
1

> <s_lp_Variant>
/home/yujie/leadopt/data/result/selection/CDK9/lig_39.sdf:1-1

> <s_i_glide_gridfile>
glide-grid_CDK9

> <i_i_glide_lignum>
37

> <i_i_glide_rotatable_bonds>
6

> <r_i_docking_score>
-8.79091708379259

> <r_i_glide_ligand_efficiency>
-0.266391426781593

> <r_i_glide_ligand_efficiency_sa>
-0.854459645622656

> <r_i_glide_ligand_efficiency_ln>
-1.95505444250282

> <r_i_glide_gscore>
-8.85251708379259

> <r_i_glide_lipo>
-2.860179336768

> <r_i_glide_hbond>
-0.526091976168847

> <r_i_glide_metal>
0

> <r_i_glide_rewards>
-1.96494612841676

> <r_i_glide_evdw>
-46.5649795532227

> <r_i_glide_ecoul>
-10.0863389968872

> <r_i_glide_erotb>
0.348460409329475

> <r_i_glide_esite>
-0.00856022457424802

> <r_i_glide_emodel>
-65.4740412483311

> <r_i_glide_energy>
-56.6513185501099

> <r_i_glide_einternal>
2.71252298355103

> <i_i_glide_confnum>
102

> <i_i_glide_posenum>
284

> <r_i_glide_eff_state_penalty>
0.0616

> <r_lp_tautomer_probability>
0.999998

> <s_m_job_name>
glide-dock_SP_all

> <r_glide_shape_similarity>
0.750036716461182

> <s_m_subgroup_title>
glide-dock_SP_all_lib1

> <s_m_subgroupid>
glide-dock_SP_all_lib1

> <b_m_subgroup_collapsed>
0

$$$$
