/home/yujie/leadopt/data/result/selection/CDK9/lig_7.sdf:1
                    3D
 Schrodinger Suite 2021-2.
 56 60  0  0  1  0            999 V2000
  -41.2569  -36.2751    0.0372 C   0  0  0  0  0  0
  -40.7272  -36.9840   -1.0786 O   0  0  0  0  0  0
  -40.3028  -36.2731   -2.1862 C   0  0  0  0  0  0
  -40.4847  -34.8718   -2.3256 C   0  0  0  0  0  0
  -39.9924  -34.1936   -3.4563 C   0  0  0  0  0  0
  -39.3064  -34.9007   -4.4556 C   0  0  0  0  0  0
  -39.1370  -36.2899   -4.3374 C   0  0  0  0  0  0
  -39.6435  -36.9943   -3.2205 C   0  0  0  0  0  0
  -39.4589  -38.4630   -3.1705 C   0  0  0  0  0  0
  -38.1577  -39.0087   -3.2687 C   0  0  0  0  0  0
  -37.9792  -40.4065   -3.2519 C   0  0  0  0  0  0
  -38.9799  -41.3091   -3.1421 N   0  0  0  0  0  0
  -40.2231  -40.7617   -3.0570 C   0  0  0  0  0  0
  -40.5562  -39.3712   -3.0716 C   0  0  0  0  0  0
  -41.9976  -39.2817   -2.9871 C   0  0  0  0  0  0
  -42.4708  -40.5691   -2.8534 C   0  0  0  0  0  0
  -41.4076  -41.4579   -2.9217 N   0  0  0  0  0  0
  -43.8252  -41.0708   -2.6176 C   0  0  0  0  0  0
  -44.9143  -40.7198   -3.4519 C   0  0  0  0  0  0
  -46.2218  -41.1850   -3.2024 C   0  0  0  0  0  0
  -46.4753  -41.9162   -2.0229 C   0  0  0  0  0  0
  -45.3954  -42.3015   -1.1970 C   0  0  0  0  0  0
  -44.0788  -41.8988   -1.5019 C   0  0  0  0  0  0
  -47.9113  -42.1635   -1.5655 C   0  0  0  0  0  0
  -48.4284  -41.0801   -0.6556 N   0  3  0  0  0  0
  -49.7882  -41.3930   -0.1170 C   0  0  0  0  0  0
  -50.2830  -40.2613    0.8235 C   0  0  0  0  0  0
  -50.3200  -39.0306    0.0965 O   0  0  0  0  0  0
  -49.0137  -38.6327   -0.3336 C   0  0  0  0  0  0
  -48.4028  -39.7076   -1.2700 C   0  0  0  0  0  0
  -40.1701  -32.8576   -3.5873 F   0  0  0  0  0  0
  -41.5160  -42.4648   -2.8190 H   0  0  0  0  0  0
  -41.4868  -36.9814    0.8339 H   0  0  0  0  0  0
  -40.5382  -35.5554    0.4322 H   0  0  0  0  0  0
  -42.1820  -35.7589   -0.2182 H   0  0  0  0  0  0
  -40.9916  -34.2879   -1.5713 H   0  0  0  0  0  0
  -38.9241  -34.3795   -5.3192 H   0  0  0  0  0  0
  -38.6232  -36.8259   -5.1221 H   0  0  0  0  0  0
  -37.2980  -38.3598   -3.3578 H   0  0  0  0  0  0
  -36.9825  -40.8155   -3.3255 H   0  0  0  0  0  0
  -42.5735  -38.3691   -2.9697 H   0  0  0  0  0  0
  -44.7805  -40.0229   -4.2550 H   0  0  0  0  0  0
  -47.0352  -40.8630   -3.8369 H   0  0  0  0  0  0
  -45.5818  -42.8633   -0.2957 H   0  0  0  0  0  0
  -43.2701  -42.1792   -0.8401 H   0  0  0  0  0  0
  -47.9506  -43.1205   -1.0427 H   0  0  0  0  0  0
  -48.5622  -42.2576   -2.4358 H   0  0  0  0  0  0
  -49.7551  -42.3399    0.4228 H   0  0  0  0  0  0
  -50.4914  -41.5184   -0.9426 H   0  0  0  0  0  0
  -51.2848  -40.4878    1.1898 H   0  0  0  0  0  0
  -49.6344  -40.1508    1.6945 H   0  0  0  0  0  0
  -49.0894  -37.6813   -0.8606 H   0  0  0  0  0  0
  -48.3749  -38.4583    0.5297 H   0  0  0  0  0  0
  -48.9552  -39.7267   -2.2110 H   0  0  0  0  0  0
  -47.3787  -39.4147   -1.5006 H   0  0  0  0  0  0
  -47.8228  -41.0586    0.1941 H   0  0  0  0  0  0
  1  2  1  0  0  0
  1 33  1  0  0  0
  1 34  1  0  0  0
  1 35  1  0  0  0
  2  3  1  0  0  0
  3  8  1  0  0  0
  3  4  2  0  0  0
  4  5  1  0  0  0
  4 36  1  0  0  0
  5  6  2  0  0  0
  5 31  1  0  0  0
  6  7  1  0  0  0
  6 37  1  0  0  0
  7  8  2  0  0  0
  7 38  1  0  0  0
  8  9  1  0  0  0
  9 14  1  0  0  0
  9 10  2  0  0  0
 10 11  1  0  0  0
 10 39  1  0  0  0
 11 12  2  0  0  0
 11 40  1  0  0  0
 12 13  1  0  0  0
 13 17  1  0  0  0
 13 14  2  0  0  0
 14 15  1  0  0  0
 15 16  2  0  0  0
 15 41  1  0  0  0
 16 17  1  0  0  0
 16 18  1  0  0  0
 17 32  1  0  0  0
 18 23  1  0  0  0
 18 19  2  0  0  0
 19 20  1  0  0  0
 19 42  1  0  0  0
 20 21  2  0  0  0
 20 43  1  0  0  0
 21 22  1  0  0  0
 21 24  1  0  0  0
 22 23  2  0  0  0
 22 44  1  0  0  0
 23 45  1  0  0  0
 24 25  1  0  0  0
 24 46  1  0  0  0
 24 47  1  0  0  0
 25 30  1  0  0  0
 25 26  1  0  0  0
 25 56  1  0  0  0
 26 27  1  0  0  0
 26 48  1  0  0  0
 26 49  1  0  0  0
 27 28  1  0  0  0
 27 50  1  0  0  0
 27 51  1  0  0  0
 28 29  1  0  0  0
 29 30  1  0  0  0
 29 52  1  0  0  0
 29 53  1  0  0  0
 30 54  1  0  0  0
 30 55  1  0  0  0
M  CHG  1  25   1
M  END
> <s_m_entry_id>
235

> <s_m_entry_name>
CDK9_lig_7.1

> <s_m_Source_Path>
C:\Users\yujiethinkpad\Desktop\selection\selection\CDK9_pose

> <s_m_Source_File>
CDK9_lig_7.sdf

> <i_m_Source_File_Index>
1

> <i_lp_mmshare_version>
51139

> <i_f3d_flags>
0

> <s_epik_input>
W0NIM11PYzFbY0hdYyhGKVtjSF1bY0hdYzEtYyhbY0hdW2NIXW4yKWMoYzIzKVtjSF1jKFtuSF0zKS1jNFtjSF1bY0hdYyhbY0hdW2NIXTQpW0NIMl1ONVtDSDJdW0NIMl1PW0NIMl1bQ0gyXTU=

> <s_epik_cmdline>
J2VwaWtfcHl0aG9uJywgJy1waHQnLCAnMi4wJywgJy1waCcsICc3LjAnLCAnLXRuJywgJzgnLCAnLW1hJywgJzIwMCcsICctaW1hZScsICc8aW5maWxlLm1hZT4nLCAnLW9tYWUnLCAnPG91dGZpbGUubWFlPic=

> <r_epik_Ionization_Penalty>
  0.5720

> <r_epik_Ionization_Penalty_Charging>
  0.5711

> <r_epik_Ionization_Penalty_Neutral>
  0.0010

> <r_epik_State_Penalty>
  0.5830

> <r_epik_Charging_Adjusted_Penalty>
1.15411

> <i_epik_Tot_Q>
1

> <i_epik_Tot_abs_Q>
1

> <s_lp_Force_Field>
OPLS3e

> <r_lp_Energy>
49.4407

> <b_lp_Chiralities_Consistent>
1

> <s_lp_Variant>
/home/yujie/leadopt/data/result/selection/CDK9/lig_7.sdf:1-2

> <s_i_glide_gridfile>
glide-grid_CDK9

> <i_i_glide_lignum>
5

> <i_i_glide_rotatable_bonds>
5

> <r_i_docking_score>
-9.2267296526587

> <r_i_glide_ligand_efficiency>
-0.297636440408345

> <r_i_glide_ligand_efficiency_sa>
-0.934989354275172

> <r_i_glide_ligand_efficiency_ln>
-2.08091030197956

> <r_i_glide_gscore>
-9.8097296526587

> <r_i_glide_lipo>
-3.1308124947133

> <r_i_glide_hbond>
-0.686404977492405

> <r_i_glide_metal>
0

> <r_i_glide_rewards>
-2.01548932741464

> <r_i_glide_evdw>
-44.5723876953125

> <r_i_glide_ecoul>
-12.491397857666

> <r_i_glide_erotb>
0.316163117862386

> <r_i_glide_esite>
-0.190856907485206

> <r_i_glide_emodel>
-71.6776872132129

> <r_i_glide_energy>
-57.0637855529785

> <r_i_glide_einternal>
1.5029524564743

> <i_i_glide_confnum>
8

> <i_i_glide_posenum>
156

> <r_i_glide_eff_state_penalty>
0.583

> <r_lp_tautomer_probability>
0.999998

> <s_m_job_name>
glide-dock_SP_all

> <r_glide_shape_similarity>
0.750370383262634

> <s_m_subgroup_title>
glide-dock_SP_all_lib1

> <s_m_subgroupid>
glide-dock_SP_all_lib1

> <b_m_subgroup_collapsed>
0

$$$$
