/home/yujie/leadopt/data/result/selection/CDK9/lig_28.sdf:1
                    3D
 Schrodinger Suite 2021-2.
 68 72  0  0  1  0            999 V2000
  -49.8123  -40.8372   -4.6226 C   0  0  0  0  0  0
  -48.8018  -41.7390   -5.1963 N   0  0  0  0  0  0
  -48.9562  -41.9583   -6.6440 C   0  0  0  0  0  0
  -47.8398  -42.3699   -4.4745 C   0  0  0  0  0  0
  -46.9703  -43.0582   -5.0138 O   0  0  0  0  0  0
  -47.8304  -42.2520   -2.9230 C   0  0  0  0  0  0
  -46.5595  -41.7258   -2.3466 N   0  3  2  0  0  0
  -46.2030  -40.3979   -2.9380 C   0  0  0  0  0  0
  -44.8191  -39.9032   -2.5250 C   0  0  0  0  0  0
  -43.8016  -41.0072   -2.8364 C   0  0  2  0  0  0
  -44.1107  -42.1714   -1.8873 C   0  0  0  0  0  0
  -45.4720  -42.7542   -2.2852 C   0  0  0  0  0  0
  -42.3916  -40.5428   -2.8533 C   0  0  0  0  0  0
  -41.9028  -39.2607   -2.9189 C   0  0  0  0  0  0
  -40.4778  -39.3687   -3.0414 C   0  0  0  0  0  0
  -39.3774  -38.4819   -3.1809 C   0  0  0  0  0  0
  -38.0811  -39.0276   -3.3099 C   0  0  0  0  0  0
  -37.9121  -40.4265   -3.2757 C   0  0  0  0  0  0
  -38.9195  -41.3194   -3.1557 N   0  0  0  0  0  0
  -40.1545  -40.7587   -3.0554 C   0  0  0  0  0  0
  -41.3424  -41.4403   -2.9313 N   0  0  0  0  0  0
  -39.5566  -37.0177   -3.2392 C   0  0  0  0  0  0
  -38.7776  -36.2125   -4.1615 C   0  0  0  0  0  0
  -38.9770  -34.8862   -4.2717 C   0  0  0  0  0  0
  -39.9777  -34.1909   -3.4611 C   0  0  0  0  0  0
  -40.1709  -32.9800   -3.6062 O   0  0  0  0  0  0
  -40.6902  -34.9766   -2.5851 N   0  0  0  0  0  0
  -40.4627  -36.3691   -2.4856 C   0  0  0  0  0  0
  -41.8857  -34.4181   -1.9069 C   0  0  0  0  0  0
  -43.1443  -34.6285   -2.7958 C   0  0  0  0  0  0
  -44.4098  -34.0420   -2.1260 C   0  0  0  0  0  0
  -44.5792  -34.5982   -0.8176 O   0  0  0  0  0  0
  -43.4823  -34.3115    0.0609 C   0  0  0  0  0  0
  -42.1701  -34.9466   -0.4680 C   0  0  0  0  0  0
  -41.4559  -42.4495   -2.8812 H   0  0  0  0  0  0
  -50.4224  -41.3548   -3.8789 H   0  0  0  0  0  0
  -50.5043  -40.4753   -5.3858 H   0  0  0  0  0  0
  -49.3432  -39.9675   -4.1569 H   0  0  0  0  0  0
  -48.8294  -41.0185   -7.1860 H   0  0  0  0  0  0
  -48.2594  -42.6925   -7.0591 H   0  0  0  0  0  0
  -49.9601  -42.3345   -6.8551 H   0  0  0  0  0  0
  -48.6317  -41.6183   -2.5492 H   0  0  0  0  0  0
  -48.0316  -43.2394   -2.5051 H   0  0  0  0  0  0
  -46.2020  -40.4331   -4.0240 H   0  0  0  0  0  0
  -46.9600  -39.6648   -2.6574 H   0  0  0  0  0  0
  -44.6103  -38.9990   -3.0973 H   0  0  0  0  0  0
  -44.7894  -39.6233   -1.4715 H   0  0  0  0  0  0
  -43.9881  -41.3566   -3.8540 H   0  0  0  0  0  0
  -44.1005  -41.8461   -0.8457 H   0  0  0  0  0  0
  -43.3652  -42.9604   -1.9728 H   0  0  0  0  0  0
  -45.7628  -43.5141   -1.5612 H   0  0  0  0  0  0
  -45.3495  -43.2679   -3.2361 H   0  0  0  0  0  0
  -42.4666  -38.3406   -2.9092 H   0  0  0  0  0  0
  -37.2141  -38.3913   -3.4160 H   0  0  0  0  0  0
  -36.9194  -40.8419   -3.3570 H   0  0  0  0  0  0
  -38.0283  -36.6788   -4.7853 H   0  0  0  0  0  0
  -38.3834  -34.3181   -4.9716 H   0  0  0  0  0  0
  -41.0923  -36.8989   -1.7952 H   0  0  0  0  0  0
  -41.7506  -33.3404   -1.7857 H   0  0  0  0  0  0
  -43.0035  -34.1648   -3.7733 H   0  0  0  0  0  0
  -43.2969  -35.6936   -2.9751 H   0  0  0  0  0  0
  -44.3379  -32.9550   -2.0595 H   0  0  0  0  0  0
  -45.2925  -34.2658   -2.7261 H   0  0  0  0  0  0
  -43.3725  -33.2288    0.1452 H   0  0  0  0  0  0
  -43.7169  -34.6998    1.0514 H   0  0  0  0  0  0
  -42.3140  -36.0238   -0.4298 H   0  0  0  0  0  0
  -41.3400  -34.7077    0.1984 H   0  0  0  0  0  0
  -46.7466  -41.5284   -1.3667 H   0  0  0  0  0  0
  1  2  1  0  0  0
  1 36  1  0  0  0
  1 37  1  0  0  0
  1 38  1  0  0  0
  2  3  1  0  0  0
  2  4  1  0  0  0
  3 39  1  0  0  0
  3 40  1  0  0  0
  3 41  1  0  0  0
  4  5  2  0  0  0
  4  6  1  0  0  0
  6  7  1  0  0  0
  6 42  1  0  0  0
  6 43  1  0  0  0
  7 12  1  0  0  0
  7  8  1  0  0  0
  7 68  1  0  0  0
  8  9  1  0  0  0
  8 44  1  0  0  0
  8 45  1  0  0  0
  9 10  1  0  0  0
  9 46  1  0  0  0
  9 47  1  0  0  0
 10 11  1  0  0  0
 10 13  1  0  0  0
 10 48  1  0  0  0
 11 12  1  0  0  0
 11 49  1  0  0  0
 11 50  1  0  0  0
 12 51  1  0  0  0
 12 52  1  0  0  0
 13 21  1  0  0  0
 13 14  2  0  0  0
 14 15  1  0  0  0
 14 53  1  0  0  0
 15 20  2  0  0  0
 15 16  1  0  0  0
 16 17  2  0  0  0
 16 22  1  0  0  0
 17 18  1  0  0  0
 17 54  1  0  0  0
 18 19  2  0  0  0
 18 55  1  0  0  0
 19 20  1  0  0  0
 20 21  1  0  0  0
 21 35  1  0  0  0
 22 28  2  0  0  0
 22 23  1  0  0  0
 23 24  2  0  0  0
 23 56  1  0  0  0
 24 25  1  0  0  0
 24 57  1  0  0  0
 25 26  2  0  0  0
 25 27  1  0  0  0
 27 28  1  0  0  0
 27 29  1  0  0  0
 28 58  1  0  0  0
 29 34  1  0  0  0
 29 30  1  0  0  0
 29 59  1  0  0  0
 30 31  1  0  0  0
 30 60  1  0  0  0
 30 61  1  0  0  0
 31 32  1  0  0  0
 31 62  1  0  0  0
 31 63  1  0  0  0
 32 33  1  0  0  0
 33 34  1  0  0  0
 33 64  1  0  0  0
 33 65  1  0  0  0
 34 66  1  0  0  0
 34 67  1  0  0  0
M  CHG  1   7   1
M  END
> <s_m_entry_id>
244

> <s_m_entry_name>
CDK9_lig_28.1

> <s_m_Source_Path>
C:\Users\yujiethinkpad\Desktop\selection\selection\CDK9_pose

> <s_m_Source_File>
CDK9_lig_28.sdf

> <i_m_Source_File_Index>
1

> <i_lp_mmshare_version>
51139

> <i_f3d_flags>
0

> <s_epik_input>
W0NIM11OKFtDSDNdKUMoPU8pW0NIMl1OMVtDSDJdW0NIMl1bQ0hdKFtDSDJdW0NIMl0xKWMoW2NIXTIpW25IXWMoYzIzKW5bY0hdW2NIXWMzLWM0W2NIXVtjSF1jKD1PKW4oW2NIXTQpW0NIXTVbQ0gyXVtDSDJdT1tDSDJdW0NIMl01

> <s_epik_cmdline>
J2VwaWtfcHl0aG9uJywgJy1waHQnLCAnMi4wJywgJy1waCcsICc3LjAnLCAnLXRuJywgJzgnLCAnLW1hJywgJzIwMCcsICctaW1hZScsICc8aW5maWxlLm1hZT4nLCAnLW9tYWUnLCAnPG91dGZpbGUubWFlPic=

> <r_epik_Ionization_Penalty>
  0.0792

> <r_epik_Ionization_Penalty_Charging>
  0.0781

> <r_epik_Ionization_Penalty_Neutral>
  0.0011

> <r_epik_State_Penalty>
  0.0690

> <r_epik_Charging_Adjusted_Penalty>
0.147046

> <i_epik_Tot_Q>
1

> <i_epik_Tot_abs_Q>
1

> <s_lp_Force_Field>
OPLS3e

> <r_lp_Energy>
71.8487

> <b_lp_Chiralities_Consistent>
1

> <s_lp_Variant>
/home/yujie/leadopt/data/result/selection/CDK9/lig_28.sdf:1-1

> <s_i_glide_gridfile>
glide-grid_CDK9

> <i_i_glide_lignum>
26

> <i_i_glide_rotatable_bonds>
6

> <r_i_docking_score>
-8.82647119047758

> <r_i_glide_ligand_efficiency>
-0.259602093837576

> <r_i_glide_ligand_efficiency_sa>
-0.841010005843987

> <r_i_glide_ligand_efficiency_ln>
-1.9500150601075

> <r_i_glide_gscore>
-8.89547119047758

> <r_i_glide_lipo>
-2.99895943942299

> <r_i_glide_hbond>
-0.53998500815382

> <r_i_glide_metal>
0

> <r_i_glide_rewards>
-1.76592485766708

> <r_i_glide_evdw>
-48.1284980773926

> <r_i_glide_ecoul>
-9.95414161682129

> <r_i_glide_erotb>
0.326925177529186

> <r_i_glide_esite>
-0.0179809163700511

> <r_i_glide_emodel>
-64.6393194797054

> <r_i_glide_energy>
-58.0826396942139

> <r_i_glide_einternal>
8.01842594146729

> <i_i_glide_confnum>
21

> <i_i_glide_posenum>
186

> <r_i_glide_eff_state_penalty>
0.069

> <r_lp_tautomer_probability>
0.999998

> <s_m_job_name>
glide-dock_SP_all

> <r_glide_shape_similarity>
0.732124865055084

> <s_m_subgroup_title>
glide-dock_SP_all_lib1

> <s_m_subgroupid>
glide-dock_SP_all_lib1

> <b_m_subgroup_collapsed>
0

$$$$
