/home/yujie/leadopt/data/result/selection/CDK9/lig_35.sdf:1
                    3D
 Schrodinger Suite 2021-2.
 58 62  0  0  1  0            999 V2000
  -41.9811  -35.1198   -0.3104 C   0  0  0  0  0  0
  -41.7460  -34.4139   -1.6795 C   0  0  0  0  0  0
  -43.0662  -34.3552   -2.4897 C   0  0  0  0  0  0
  -40.6597  -34.9853   -2.5202 N   0  0  0  0  0  0
  -40.4437  -36.3820   -2.4571 C   0  0  0  0  0  0
  -39.5893  -37.0243   -3.2696 C   0  0  0  0  0  0
  -38.8676  -36.2220   -4.2382 C   0  0  0  0  0  0
  -39.0667  -34.8945   -4.3288 C   0  0  0  0  0  0
  -40.0003  -34.1977   -3.4439 C   0  0  0  0  0  0
  -40.1872  -32.9819   -3.5607 O   0  0  0  0  0  0
  -39.3894  -38.4799   -3.2091 C   0  0  0  0  0  0
  -38.0761  -38.9807   -3.3412 C   0  0  0  0  0  0
  -37.8526  -40.3706   -3.3054 C   0  0  0  0  0  0
  -38.8279  -41.2921   -3.1750 N   0  0  0  0  0  0
  -40.0786  -40.7692   -3.0566 C   0  0  0  0  0  0
  -40.4670  -39.3940   -3.0471 C   0  0  0  0  0  0
  -41.9026  -39.3587   -2.8630 C   0  0  0  0  0  0
  -42.2954  -40.6634   -2.6486 C   0  0  0  0  0  0
  -41.2151  -41.4988   -2.8375 N   0  0  0  0  0  0
  -43.5885  -41.2744   -2.2185 C   0  0  0  0  0  0
  -44.6443  -40.2485   -1.7691 C   0  0  0  0  0  0
  -46.0225  -40.9096   -1.5615 C   0  0  0  0  0  0
  -46.3725  -41.5489   -2.8338 N   0  0  1  0  0  0
  -45.5227  -42.7282   -2.9905 C   0  0  0  0  0  0
  -44.1283  -42.2054   -3.3173 C   0  0  0  0  0  0
  -47.7849  -41.8681   -2.9423 C   0  0  0  0  0  0
  -48.2013  -41.9986   -4.3742 C   0  0  0  0  0  0
  -48.8376  -41.0194   -5.0350 N   0  0  0  0  0  0
  -49.2261  -41.4095   -6.3263 C   0  0  0  0  0  0
  -48.8281  -42.6817   -6.6620 C   0  0  0  0  0  0
  -47.9491  -43.4491   -5.3575 S   0  0  0  0  0  0
  -41.2672  -42.5093   -2.7147 H   0  0  0  0  0  0
  -42.7052  -34.5530    0.2751 H   0  0  0  0  0  0
  -41.0778  -35.1995    0.2879 H   0  0  0  0  0  0
  -42.4132  -36.1137   -0.4087 H   0  0  0  0  0  0
  -41.4656  -33.3917   -1.4332 H   0  0  0  0  0  0
  -43.8593  -33.8800   -1.9098 H   0  0  0  0  0  0
  -42.9492  -33.7690   -3.4038 H   0  0  0  0  0  0
  -43.4082  -35.3540   -2.7700 H   0  0  0  0  0  0
  -41.0138  -36.9211   -1.7253 H   0  0  0  0  0  0
  -38.1616  -36.6885   -4.9102 H   0  0  0  0  0  0
  -38.5152  -34.3265   -5.0593 H   0  0  0  0  0  0
  -37.2369  -38.3097   -3.4501 H   0  0  0  0  0  0
  -36.8429  -40.7414   -3.3934 H   0  0  0  0  0  0
  -42.5151  -38.4731   -2.8047 H   0  0  0  0  0  0
  -43.3828  -41.9053   -1.3500 H   0  0  0  0  0  0
  -44.3185  -39.7539   -0.8551 H   0  0  0  0  0  0
  -44.7519  -39.4723   -2.5288 H   0  0  0  0  0  0
  -46.0236  -41.6213   -0.7328 H   0  0  0  0  0  0
  -46.7487  -40.1356   -1.3115 H   0  0  0  0  0  0
  -45.5237  -43.3476   -2.0901 H   0  0  0  0  0  0
  -45.8437  -43.3601   -3.8121 H   0  0  0  0  0  0
  -44.1691  -41.6653   -4.2582 H   0  0  0  0  0  0
  -43.4512  -43.0468   -3.4545 H   0  0  0  0  0  0
  -48.0261  -42.7794   -2.3948 H   0  0  0  0  0  0
  -48.3823  -41.0707   -2.4990 H   0  0  0  0  0  0
  -49.7777  -40.7146   -6.9399 H   0  0  0  0  0  0
  -48.9892  -43.2073   -7.5931 H   0  0  0  0  0  0
  1  2  1  0  0  0
  1 33  1  0  0  0
  1 34  1  0  0  0
  1 35  1  0  0  0
  2  3  1  0  0  0
  2  4  1  0  0  0
  2 36  1  0  0  0
  3 37  1  0  0  0
  3 38  1  0  0  0
  3 39  1  0  0  0
  4  9  1  0  0  0
  4  5  1  0  0  0
  5  6  2  0  0  0
  5 40  1  0  0  0
  6  7  1  0  0  0
  6 11  1  0  0  0
  7  8  2  0  0  0
  7 41  1  0  0  0
  8  9  1  0  0  0
  8 42  1  0  0  0
  9 10  2  0  0  0
 11 16  1  0  0  0
 11 12  2  0  0  0
 12 13  1  0  0  0
 12 43  1  0  0  0
 13 14  2  0  0  0
 13 44  1  0  0  0
 14 15  1  0  0  0
 15 19  1  0  0  0
 15 16  2  0  0  0
 16 17  1  0  0  0
 17 18  2  0  0  0
 17 45  1  0  0  0
 18 19  1  0  0  0
 18 20  1  0  0  0
 19 32  1  0  0  0
 20 25  1  0  0  0
 20 21  1  0  0  0
 20 46  1  0  0  0
 21 22  1  0  0  0
 21 47  1  0  0  0
 21 48  1  0  0  0
 22 23  1  0  0  0
 22 49  1  0  0  0
 22 50  1  0  0  0
 23 24  1  0  0  0
 23 26  1  0  0  0
 24 25  1  0  0  0
 24 51  1  0  0  0
 24 52  1  0  0  0
 25 53  1  0  0  0
 25 54  1  0  0  0
 26 27  1  0  0  0
 26 55  1  0  0  0
 26 56  1  0  0  0
 27 31  1  0  0  0
 27 28  2  0  0  0
 28 29  1  0  0  0
 29 30  2  0  0  0
 29 57  1  0  0  0
 30 31  1  0  0  0
 30 58  1  0  0  0
M  END
> <s_m_entry_id>
254

> <s_m_entry_name>
CDK9_lig_35.1

> <s_m_Source_Path>
C:\Users\yujiethinkpad\Desktop\selection\selection\CDK9_pose

> <s_m_Source_File>
CDK9_lig_35.sdf

> <i_m_Source_File_Index>
1

> <i_lp_mmshare_version>
51139

> <i_f3d_flags>
0

> <s_epik_input>
W0NIM11bQ0hdKFtDSDNdKW4xW2NIXWMoW2NIXVtjSF1jMT1PKS1jKFtjSF1bY0hdbjIpYyhjMjMpW2NIXWMoW25IXTMpW0NIXTRbQ0gyXVtDSDJdTihbQ0gyXVtDSDJdNClbQ0gyXWM1bltjSF1bY0hdczU=

> <s_epik_cmdline>
J2VwaWtfcHl0aG9uJywgJy1waHQnLCAnMi4wJywgJy1waCcsICc3LjAnLCAnLXRuJywgJzgnLCAnLW1hJywgJzIwMCcsICctaW1hZScsICc8aW5maWxlLm1hZT4nLCAnLW9tYWUnLCAnPG91dGZpbGUubWFlPic=

> <r_epik_Ionization_Penalty>
  0.4823

> <r_epik_Ionization_Penalty_Charging>
  0.0000

> <r_epik_Ionization_Penalty_Neutral>
  0.4823

> <r_epik_State_Penalty>
  0.5072

> <r_epik_Charging_Adjusted_Penalty>
0.507175

> <i_epik_Tot_Q>
0

> <i_epik_Tot_abs_Q>
0

> <s_lp_Force_Field>
OPLS3e

> <r_lp_Energy>
57.9852

> <b_lp_Chiralities_Consistent>
1

> <s_lp_Variant>
/home/yujie/leadopt/data/result/selection/CDK9/lig_35.sdf:1-2

> <s_i_glide_gridfile>
glide-grid_CDK9

> <i_i_glide_lignum>
33

> <i_i_glide_rotatable_bonds>
5

> <r_i_docking_score>
-8.22810741734983

> <r_i_glide_ligand_efficiency>
-0.265422819914511

> <r_i_glide_ligand_efficiency_sa>
-0.833794110228196

> <r_i_glide_ligand_efficiency_ln>
-1.85569038382131

> <r_i_glide_gscore>
-8.73530741734983

> <r_i_glide_lipo>
-2.87094524165749

> <r_i_glide_hbond>
-0.492254255779334

> <r_i_glide_metal>
0

> <r_i_glide_rewards>
-2.0175136033383

> <r_i_glide_evdw>
-46.6263122558594

> <r_i_glide_ecoul>
-8.79874610900879

> <r_i_glide_erotb>
0.296533212569584

> <r_i_glide_esite>
0

> <r_i_glide_emodel>
-63.0574816047699

> <r_i_glide_energy>
-55.4250583648682

> <r_i_glide_einternal>
3.68662309646606

> <i_i_glide_confnum>
7

> <i_i_glide_posenum>
256

> <r_i_glide_eff_state_penalty>
0.5072

> <r_lp_tautomer_probability>
0.999998

> <s_m_job_name>
glide-dock_SP_all

> <r_glide_shape_similarity>
0.795072257518768

> <s_m_subgroup_title>
glide-dock_SP_all_lib1

> <s_m_subgroupid>
glide-dock_SP_all_lib1

> <b_m_subgroup_collapsed>
0

$$$$
