/home/yujie/leadopt/data/result/selection/CDK9/lig_25.sdf:1
                    3D
 Schrodinger Suite 2021-2.
 66 69  0  0  1  0            999 V2000
  -41.8351  -35.5851   -0.0973 C   0  0  0  0  0  0
  -42.2691  -34.3234   -0.8949 C   0  0  0  0  0  0
  -43.7160  -33.9082   -0.5214 C   0  0  0  0  0  0
  -42.1550  -34.4654   -2.4370 C   0  0  0  0  0  0
  -40.8576  -34.9724   -2.9132 N   0  0  0  0  0  0
  -40.6714  -36.3658   -2.8152 C   0  0  0  0  0  0
  -39.6051  -37.0079   -3.3155 C   0  0  0  0  0  0
  -38.6380  -36.1721   -4.0177 C   0  0  0  0  0  0
  -38.8050  -34.8398   -4.1321 C   0  0  0  0  0  0
  -39.9553  -34.1544   -3.5398 C   0  0  0  0  0  0
  -40.1054  -32.9332   -3.6496 O   0  0  0  0  0  0
  -39.4466  -38.4827   -3.2139 C   0  0  0  0  0  0
  -38.1395  -39.0190   -3.2944 C   0  0  0  0  0  0
  -37.9509  -40.4142   -3.2589 C   0  0  0  0  0  0
  -38.9487  -41.3163   -3.1416 N   0  0  0  0  0  0
  -40.1896  -40.7688   -3.0482 C   0  0  0  0  0  0
  -40.5484  -39.3866   -3.0650 C   0  0  0  0  0  0
  -41.9991  -39.3447   -2.9377 C   0  0  0  0  0  0
  -42.4298  -40.6403   -2.7276 C   0  0  0  0  0  0
  -41.3432  -41.4865   -2.8418 N   0  0  0  0  0  0
  -43.7803  -41.2136   -2.3772 C   0  0  1  0  0  0
  -44.9260  -40.1725   -2.4019 C   0  0  0  0  0  0
  -46.3156  -40.8168   -2.2012 C   0  0  0  0  0  0
  -46.5222  -41.8991   -3.2071 N   0  3  1  0  0  0
  -45.5297  -42.9821   -3.0186 C   0  0  0  0  0  0
  -44.1260  -42.4210   -3.2854 C   0  0  0  0  0  0
  -47.9265  -42.3583   -3.3461 C   0  0  0  0  0  0
  -48.6282  -41.6063   -4.4968 C   0  0  0  0  0  0
  -48.0206  -40.6916   -5.0569 O   0  0  0  0  0  0
  -49.8885  -41.9672   -4.8566 N   0  0  0  0  0  0
  -50.5911  -41.3039   -5.9699 C   0  0  0  0  0  0
  -50.6586  -43.0078   -4.1515 C   0  0  0  0  0  0
  -41.4082  -42.4950   -2.7002 H   0  0  0  0  0  0
  -42.3901  -36.4743   -0.3942 H   0  0  0  0  0  0
  -42.0616  -35.4343    0.9451 H   0  0  0  0  0  0
  -40.7659  -35.7853   -0.1697 H   0  0  0  0  0  0
  -41.6291  -33.4977   -0.5852 H   0  0  0  0  0  0
  -44.4379  -34.6843   -0.7798 H   0  0  0  0  0  0
  -43.8021  -33.7179    0.5474 H   0  0  0  0  0  0
  -44.0017  -32.9902   -1.0367 H   0  0  0  0  0  0
  -42.9333  -35.1412   -2.7936 H   0  0  0  0  0  0
  -42.4005  -33.5067   -2.8989 H   0  0  0  0  0  0
  -41.4666  -36.8772   -2.3037 H   0  0  0  0  0  0
  -37.7726  -36.6150   -4.4893 H   0  0  0  0  0  0
  -38.0716  -34.2645   -4.6753 H   0  0  0  0  0  0
  -37.2684  -38.3872   -3.3815 H   0  0  0  0  0  0
  -36.9520  -40.8180   -3.3185 H   0  0  0  0  0  0
  -42.6295  -38.4676   -2.9340 H   0  0  0  0  0  0
  -43.7196  -41.5895   -1.3502 H   0  0  0  0  0  0
  -44.7572  -39.4129   -1.6365 H   0  0  0  0  0  0
  -44.9179  -39.6502   -3.3647 H   0  0  0  0  0  0
  -46.4216  -41.2112   -1.1874 H   0  0  0  0  0  0
  -47.0814  -40.0498   -2.3235 H   0  0  0  0  0  0
  -45.6021  -43.4023   -2.0093 H   0  0  0  0  0  0
  -45.7188  -43.8006   -3.7164 H   0  0  0  0  0  0
  -44.0455  -42.1260   -4.3352 H   0  0  0  0  0  0
  -43.3986  -43.2192   -3.1356 H   0  0  0  0  0  0
  -47.9524  -43.4251   -3.5728 H   0  0  0  0  0  0
  -48.4603  -42.2220   -2.4048 H   0  0  0  0  0  0
  -49.9095  -40.9642   -6.7549 H   0  0  0  0  0  0
  -51.3026  -41.9763   -6.4514 H   0  0  0  0  0  0
  -51.1477  -40.4429   -5.6027 H   0  0  0  0  0  0
  -50.6973  -42.8077   -3.0798 H   0  0  0  0  0  0
  -51.6909  -43.0558   -4.4988 H   0  0  0  0  0  0
  -50.2157  -43.9921   -4.3073 H   0  0  0  0  0  0
  -46.3276  -41.4946   -4.1212 H   0  0  0  0  0  0
  1  2  1  0  0  0
  1 34  1  0  0  0
  1 35  1  0  0  0
  1 36  1  0  0  0
  2  3  1  0  0  0
  2  4  1  0  0  0
  2 37  1  0  0  0
  3 38  1  0  0  0
  3 39  1  0  0  0
  3 40  1  0  0  0
  4  5  1  0  0  0
  4 41  1  0  0  0
  4 42  1  0  0  0
  5 10  1  0  0  0
  5  6  1  0  0  0
  6  7  2  0  0  0
  6 43  1  0  0  0
  7  8  1  0  0  0
  7 12  1  0  0  0
  8  9  2  0  0  0
  8 44  1  0  0  0
  9 10  1  0  0  0
  9 45  1  0  0  0
 10 11  2  0  0  0
 12 17  1  0  0  0
 12 13  2  0  0  0
 13 14  1  0  0  0
 13 46  1  0  0  0
 14 15  2  0  0  0
 14 47  1  0  0  0
 15 16  1  0  0  0
 16 20  1  0  0  0
 16 17  2  0  0  0
 17 18  1  0  0  0
 18 19  2  0  0  0
 18 48  1  0  0  0
 19 20  1  0  0  0
 19 21  1  0  0  0
 20 33  1  0  0  0
 21 26  1  0  0  0
 21 22  1  0  0  0
 21 49  1  0  0  0
 22 23  1  0  0  0
 22 50  1  0  0  0
 22 51  1  0  0  0
 23 24  1  0  0  0
 23 52  1  0  0  0
 23 53  1  0  0  0
 24 25  1  0  0  0
 24 27  1  0  0  0
 24 66  1  0  0  0
 25 26  1  0  0  0
 25 54  1  0  0  0
 25 55  1  0  0  0
 26 56  1  0  0  0
 26 57  1  0  0  0
 27 28  1  0  0  0
 27 58  1  0  0  0
 27 59  1  0  0  0
 28 29  2  0  0  0
 28 30  1  0  0  0
 30 31  1  0  0  0
 30 32  1  0  0  0
 31 60  1  0  0  0
 31 61  1  0  0  0
 31 62  1  0  0  0
 32 63  1  0  0  0
 32 64  1  0  0  0
 32 65  1  0  0  0
M  CHG  1  24   1
M  END
> <s_m_entry_id>
252

> <s_m_entry_name>
CDK9_lig_25.1

> <s_m_Source_Path>
C:\Users\yujiethinkpad\Desktop\selection\selection\CDK9_pose

> <s_m_Source_File>
CDK9_lig_25.sdf

> <i_m_Source_File_Index>
1

> <i_lp_mmshare_version>
51139

> <i_f3d_flags>
0

> <s_epik_input>
W0NIM11bQ0hdKFtDSDNdKVtDSDJdbjFbY0hdYyhbY0hdW2NIXWMxPU8pLWMoW2NIXVtjSF1uMiljKGMyMylbY0hdYyhbbkhdMylbQ0hdNFtDSDJdW0NIMl1OKFtDSDJdW0NIMl00KVtDSDJdQyg9TylOKFtDSDNdKVtDSDNd

> <s_epik_cmdline>
J2VwaWtfcHl0aG9uJywgJy1waHQnLCAnMi4wJywgJy1waCcsICc3LjAnLCAnLXRuJywgJzgnLCAnLW1hJywgJzIwMCcsICctaW1hZScsICc8aW5maWxlLm1hZT4nLCAnLW9tYWUnLCAnPG91dGZpbGUubWFlPic=

> <r_epik_Ionization_Penalty>
  0.0792

> <r_epik_Ionization_Penalty_Charging>
  0.0781

> <r_epik_Ionization_Penalty_Neutral>
  0.0011

> <r_epik_State_Penalty>
  0.0690

> <r_epik_Charging_Adjusted_Penalty>
0.147046

> <i_epik_Tot_Q>
1

> <i_epik_Tot_abs_Q>
1

> <s_lp_Force_Field>
OPLS3e

> <r_lp_Energy>
58.5913

> <b_lp_Chiralities_Consistent>
1

> <s_lp_Variant>
/home/yujie/leadopt/data/result/selection/CDK9/lig_25.sdf:1-1

> <s_i_glide_gridfile>
glide-grid_CDK9

> <i_i_glide_lignum>
23

> <i_i_glide_rotatable_bonds>
7

> <r_i_docking_score>
-8.53399854991406

> <r_i_glide_ligand_efficiency>
-0.266687454684814

> <r_i_glide_ligand_efficiency_sa>
-0.846679891248669

> <r_i_glide_ligand_efficiency_ln>
-1.9109949033403

> <r_i_glide_gscore>
-8.60299854991406

> <r_i_glide_lipo>
-2.68360880864724

> <r_i_glide_hbond>
-0.578383250390565

> <r_i_glide_metal>
0

> <r_i_glide_rewards>
-1.92787621699601

> <r_i_glide_evdw>
-46.0854110717773

> <r_i_glide_ecoul>
-9.78798770904541

> <r_i_glide_erotb>
0.366061694425157

> <r_i_glide_esite>
-0.00672325835972261

> <r_i_glide_emodel>
-66.2222185723222

> <r_i_glide_energy>
-55.8733987808228

> <r_i_glide_einternal>
1.83936989307404

> <i_i_glide_confnum>
52

> <i_i_glide_posenum>
394

> <r_i_glide_eff_state_penalty>
0.069

> <r_lp_tautomer_probability>
0.999998

> <s_m_job_name>
glide-dock_SP_all

> <r_glide_shape_similarity>
0.761991202831268

> <s_m_subgroup_title>
glide-dock_SP_all_lib1

> <s_m_subgroupid>
glide-dock_SP_all_lib1

> <b_m_subgroup_collapsed>
0

$$$$
