/home/yujie/leadopt/data/result/selection/CDK9/lig_23.sdf:1
                    3D
 Schrodinger Suite 2021-2.
 60 63  0  0  1  0            999 V2000
  -42.0440  -35.0887   -0.3070 C   0  0  0  0  0  0
  -41.7032  -34.3898   -1.6570 C   0  0  0  0  0  0
  -40.6255  -34.9763   -2.4920 N   0  0  0  0  0  0
  -40.3973  -36.3700   -2.4049 C   0  0  0  0  0  0
  -39.5704  -37.0234   -3.2417 C   0  0  0  0  0  0
  -38.8831  -36.2324   -4.2469 C   0  0  0  0  0  0
  -39.0904  -34.9060   -4.3515 C   0  0  0  0  0  0
  -40.0006  -34.1993   -3.4471 C   0  0  0  0  0  0
  -40.1963  -32.9864   -3.5741 O   0  0  0  0  0  0
  -39.3843  -38.4846   -3.1820 C   0  0  0  0  0  0
  -38.0859  -39.0259   -3.3157 C   0  0  0  0  0  0
  -37.9155  -40.4259   -3.2771 C   0  0  0  0  0  0
  -38.9231  -41.3208   -3.1535 N   0  0  0  0  0  0
  -40.1608  -40.7620   -3.0524 C   0  0  0  0  0  0
  -40.4849  -39.3701   -3.0373 C   0  0  0  0  0  0
  -41.9113  -39.2615   -2.9022 C   0  0  0  0  0  0
  -42.4000  -40.5466   -2.8368 C   0  0  0  0  0  0
  -41.3497  -41.4462   -2.9280 N   0  0  0  0  0  0
  -43.8107  -41.0204   -2.8246 C   0  0  1  0  0  0
  -44.1097  -42.2565   -1.9640 C   0  0  0  0  0  0
  -45.4554  -42.8290   -2.4333 C   0  0  0  0  0  0
  -46.5578  -41.8172   -2.3898 N   0  3  1  0  0  0
  -46.2251  -40.4509   -2.9125 C   0  0  0  0  0  0
  -44.8493  -39.9527   -2.4564 C   0  0  0  0  0  0
  -47.8375  -42.3335   -2.9573 C   0  0  0  0  0  0
  -47.9032  -42.3303   -4.5118 C   0  0  0  0  0  0
  -47.0711  -42.9964   -5.1347 O   0  0  0  0  0  0
  -48.8697  -41.6083   -5.1425 N   0  0  0  0  0  0
  -49.0556  -41.6534   -6.6034 C   0  0  0  0  0  0
  -49.8568  -40.7650   -4.4479 C   0  0  0  0  0  0
  -41.4629  -42.4563   -2.8796 H   0  0  0  0  0  0
  -42.8506  -34.5350    0.1740 H   0  0  0  0  0  0
  -42.4215  -36.1038   -0.4229 H   0  0  0  0  0  0
  -41.2186  -35.0925    0.4034 H   0  0  0  0  0  0
  -41.4791  -33.3457   -1.4425 H   0  0  0  0  0  0
  -42.6072  -34.3704   -2.2686 H   0  0  0  0  0  0
  -40.9449  -36.8980   -1.6447 H   0  0  0  0  0  0
  -38.1977  -36.7105   -4.9318 H   0  0  0  0  0  0
  -38.5645  -34.3448   -5.1090 H   0  0  0  0  0  0
  -37.2243  -38.3835   -3.4299 H   0  0  0  0  0  0
  -36.9227  -40.8413   -3.3621 H   0  0  0  0  0  0
  -42.4724  -38.3390   -2.8843 H   0  0  0  0  0  0
  -43.9976  -41.3127   -3.8561 H   0  0  0  0  0  0
  -44.1195  -42.0107   -0.9009 H   0  0  0  0  0  0
  -43.3516  -43.0231   -2.0998 H   0  0  0  0  0  0
  -45.7370  -43.6712   -1.8029 H   0  0  0  0  0  0
  -45.3253  -43.2281   -3.4369 H   0  0  0  0  0  0
  -46.2169  -40.4346   -4.0023 H   0  0  0  0  0  0
  -46.9979  -39.7469   -2.5995 H   0  0  0  0  0  0
  -44.6484  -39.0143   -2.9737 H   0  0  0  0  0  0
  -44.8305  -39.7327   -1.3872 H   0  0  0  0  0  0
  -48.6382  -41.7567   -2.4988 H   0  0  0  0  0  0
  -47.9982  -43.3572   -2.6153 H   0  0  0  0  0  0
  -48.4284  -42.3925   -7.1035 H   0  0  0  0  0  0
  -48.8350  -40.6815   -7.0397 H   0  0  0  0  0  0
  -50.0888  -41.9057   -6.8436 H   0  0  0  0  0  0
  -49.3669  -39.9652   -3.8910 H   0  0  0  0  0  0
  -50.5489  -40.2989   -5.1466 H   0  0  0  0  0  0
  -50.4590  -41.3591   -3.7586 H   0  0  0  0  0  0
  -46.7162  -41.6842   -1.3932 H   0  0  0  0  0  0
  1  2  1  0  0  0
  1 32  1  0  0  0
  1 33  1  0  0  0
  1 34  1  0  0  0
  2  3  1  0  0  0
  2 35  1  0  0  0
  2 36  1  0  0  0
  3  8  1  0  0  0
  3  4  1  0  0  0
  4  5  2  0  0  0
  4 37  1  0  0  0
  5  6  1  0  0  0
  5 10  1  0  0  0
  6  7  2  0  0  0
  6 38  1  0  0  0
  7  8  1  0  0  0
  7 39  1  0  0  0
  8  9  2  0  0  0
 10 15  1  0  0  0
 10 11  2  0  0  0
 11 12  1  0  0  0
 11 40  1  0  0  0
 12 13  2  0  0  0
 12 41  1  0  0  0
 13 14  1  0  0  0
 14 18  1  0  0  0
 14 15  2  0  0  0
 15 16  1  0  0  0
 16 17  2  0  0  0
 16 42  1  0  0  0
 17 18  1  0  0  0
 17 19  1  0  0  0
 18 31  1  0  0  0
 19 24  1  0  0  0
 19 20  1  0  0  0
 19 43  1  0  0  0
 20 21  1  0  0  0
 20 44  1  0  0  0
 20 45  1  0  0  0
 21 22  1  0  0  0
 21 46  1  0  0  0
 21 47  1  0  0  0
 22 23  1  0  0  0
 22 25  1  0  0  0
 22 60  1  0  0  0
 23 24  1  0  0  0
 23 48  1  0  0  0
 23 49  1  0  0  0
 24 50  1  0  0  0
 24 51  1  0  0  0
 25 26  1  0  0  0
 25 52  1  0  0  0
 25 53  1  0  0  0
 26 27  2  0  0  0
 26 28  1  0  0  0
 28 29  1  0  0  0
 28 30  1  0  0  0
 29 54  1  0  0  0
 29 55  1  0  0  0
 29 56  1  0  0  0
 30 57  1  0  0  0
 30 58  1  0  0  0
 30 59  1  0  0  0
M  CHG  1  22   1
M  END
> <s_m_entry_id>
245

> <s_m_entry_name>
CDK9_lig_23.1

> <s_m_Source_Path>
C:\Users\yujiethinkpad\Desktop\selection\selection\CDK9_pose

> <s_m_Source_File>
CDK9_lig_23.sdf

> <i_m_Source_File_Index>
1

> <i_lp_mmshare_version>
51139

> <i_f3d_flags>
0

> <s_epik_input>
W0NIM11bQ0gyXW4xW2NIXWMoW2NIXVtjSF1jMT1PKS1jKFtjSF1bY0hdbjIpYyhjMjMpW2NIXWMoW25IXTMpW0NIXTRbQ0gyXVtDSDJdTihbQ0gyXVtDSDJdNClbQ0gyXUMoPU8pTihbQ0gzXSlbQ0gzXQ==

> <s_epik_cmdline>
J2VwaWtfcHl0aG9uJywgJy1waHQnLCAnMi4wJywgJy1waCcsICc3LjAnLCAnLXRuJywgJzgnLCAnLW1hJywgJzIwMCcsICctaW1hZScsICc8aW5maWxlLm1hZT4nLCAnLW9tYWUnLCAnPG91dGZpbGUubWFlPic=

> <r_epik_Ionization_Penalty>
  0.0792

> <r_epik_Ionization_Penalty_Charging>
  0.0781

> <r_epik_Ionization_Penalty_Neutral>
  0.0011

> <r_epik_State_Penalty>
  0.0690

> <r_epik_Charging_Adjusted_Penalty>
0.147046

> <i_epik_Tot_Q>
1

> <i_epik_Tot_abs_Q>
1

> <s_lp_Force_Field>
OPLS3e

> <r_lp_Energy>
58.8388

> <b_lp_Chiralities_Consistent>
1

> <s_lp_Variant>
/home/yujie/leadopt/data/result/selection/CDK9/lig_23.sdf:1-1

> <s_i_glide_gridfile>
glide-grid_CDK9

> <i_i_glide_lignum>
21

> <i_i_glide_rotatable_bonds>
6

> <r_i_docking_score>
-8.81800452342161

> <r_i_glide_ligand_efficiency>
-0.293933484114054

> <r_i_glide_ligand_efficiency_sa>
-0.913319675392

> <r_i_glide_ligand_efficiency_ln>
-2.00354670757607

> <r_i_glide_gscore>
-8.88700452342161

> <r_i_glide_lipo>
-2.88956227668584

> <r_i_glide_hbond>
-0.527751244453436

> <r_i_glide_metal>
0

> <r_i_glide_rewards>
-2.20285816298197

> <r_i_glide_evdw>
-43.5865821838379

> <r_i_glide_ecoul>
-9.34272575378418

> <r_i_glide_erotb>
0.330224485657351

> <r_i_glide_esite>
-0.0163193526982007

> <r_i_glide_emodel>
-67.0557436062662

> <r_i_glide_energy>
-52.9293079376221

> <r_i_glide_einternal>
7.86156749725342

> <i_i_glide_confnum>
55

> <i_i_glide_posenum>
161

> <r_i_glide_eff_state_penalty>
0.069

> <r_lp_tautomer_probability>
0.999998

> <s_m_job_name>
glide-dock_SP_all

> <r_glide_shape_similarity>
0.833329379558563

> <s_m_subgroup_title>
glide-dock_SP_all_lib1

> <s_m_subgroupid>
glide-dock_SP_all_lib1

> <b_m_subgroup_collapsed>
0

$$$$
