/home/yujie/leadopt/data/result/selection/CDK9/lig_18.sdf:1
                    3D
 Schrodinger Suite 2021-2.
 58 61  0  0  1  0            999 V2000
  -49.6374  -41.3416   -6.5465 C   0  0  0  0  0  0
  -49.2746  -41.3420   -5.1171 N   0  0  0  0  0  0
  -50.1940  -40.5986   -4.2315 C   0  0  0  0  0  0
  -48.1840  -42.0329   -4.6775 C   0  0  0  0  0  0
  -47.4260  -42.6290   -5.4506 O   0  0  0  0  0  0
  -47.8664  -42.0979   -3.1666 C   0  0  0  0  0  0
  -46.4468  -41.7420   -2.9525 N   0  3  2  0  0  0
  -45.5041  -42.8856   -2.9842 C   0  0  0  0  0  0
  -44.1153  -42.3271   -3.3046 C   0  0  0  0  0  0
  -43.6721  -41.2597   -2.2715 C   0  0  2  0  0  0
  -44.7746  -40.2122   -1.9845 C   0  0  0  0  0  0
  -46.1612  -40.8646   -1.7808 C   0  0  0  0  0  0
  -42.3585  -40.6510   -2.6689 C   0  0  0  0  0  0
  -41.9452  -39.3463   -2.8646 C   0  0  0  0  0  0
  -40.5043  -39.3881   -3.0428 C   0  0  0  0  0  0
  -39.4323  -38.4555   -3.1726 C   0  0  0  0  0  0
  -38.1179  -38.9777   -3.2852 C   0  0  0  0  0  0
  -37.9023  -40.3726   -3.2760 C   0  0  0  0  0  0
  -38.8807  -41.2967   -3.1715 N   0  0  0  0  0  0
  -40.1286  -40.7680   -3.0551 C   0  0  0  0  0  0
  -41.2754  -41.4946   -2.8479 N   0  0  0  0  0  0
  -39.6414  -36.9902   -3.2216 C   0  0  0  0  0  0
  -39.1362  -36.2870   -4.3396 C   0  0  0  0  0  0
  -39.3065  -34.8982   -4.4580 C   0  0  0  0  0  0
  -39.9917  -34.1894   -3.4576 C   0  0  0  0  0  0
  -40.4854  -34.8676   -2.3259 C   0  0  0  0  0  0
  -40.3035  -36.2708   -2.1864 C   0  0  0  0  0  0
  -40.7277  -36.9839   -1.0797 O   0  0  0  0  0  0
  -41.2583  -36.2768    0.0373 C   0  0  0  0  0  0
  -40.1713  -32.8540   -3.5913 F   0  0  0  0  0  0
  -41.3279  -42.5052   -2.7202 H   0  0  0  0  0  0
  -48.8287  -40.9455   -7.1600 H   0  0  0  0  0  0
  -50.5204  -40.7349   -6.7626 H   0  0  0  0  0  0
  -49.8540  -42.3613   -6.8794 H   0  0  0  0  0  0
  -50.5571  -41.2326   -3.4196 H   0  0  0  0  0  0
  -49.6949  -39.7317   -3.7976 H   0  0  0  0  0  0
  -51.0778  -40.2336   -4.7526 H   0  0  0  0  0  0
  -48.4888  -41.4236   -2.5846 H   0  0  0  0  0  0
  -48.0733  -43.1043   -2.7931 H   0  0  0  0  0  0
  -45.5083  -43.4159   -2.0310 H   0  0  0  0  0  0
  -45.7844  -43.6164   -3.7409 H   0  0  0  0  0  0
  -43.3962  -43.1434   -3.3372 H   0  0  0  0  0  0
  -44.1286  -41.8982   -4.3045 H   0  0  0  0  0  0
  -43.5097  -41.7940   -1.3333 H   0  0  0  0  0  0
  -44.8391  -39.5235   -2.8266 H   0  0  0  0  0  0
  -44.5104  -39.6079   -1.1149 H   0  0  0  0  0  0
  -46.9070  -40.0743   -1.7040 H   0  0  0  0  0  0
  -46.2003  -41.4357   -0.8485 H   0  0  0  0  0  0
  -42.5448  -38.4480   -2.7902 H   0  0  0  0  0  0
  -37.2696  -38.3135   -3.3845 H   0  0  0  0  0  0
  -36.8951  -40.7524   -3.3636 H   0  0  0  0  0  0
  -38.6143  -36.8239   -5.1183 H   0  0  0  0  0  0
  -38.9169  -34.3790   -5.3175 H   0  0  0  0  0  0
  -40.9960  -34.2822   -1.5736 H   0  0  0  0  0  0
  -41.4612  -36.9862    0.8404 H   0  0  0  0  0  0
  -40.5537  -35.5373    0.4211 H   0  0  0  0  0  0
  -42.1989  -35.7848   -0.2068 H   0  0  0  0  0  0
  -46.2267  -41.1866   -3.7730 H   0  0  0  0  0  0
  1  2  1  0  0  0
  1 32  1  0  0  0
  1 33  1  0  0  0
  1 34  1  0  0  0
  2  3  1  0  0  0
  2  4  1  0  0  0
  3 35  1  0  0  0
  3 36  1  0  0  0
  3 37  1  0  0  0
  4  5  2  0  0  0
  4  6  1  0  0  0
  6  7  1  0  0  0
  6 38  1  0  0  0
  6 39  1  0  0  0
  7 12  1  0  0  0
  7  8  1  0  0  0
  7 58  1  0  0  0
  8  9  1  0  0  0
  8 40  1  0  0  0
  8 41  1  0  0  0
  9 10  1  0  0  0
  9 42  1  0  0  0
  9 43  1  0  0  0
 10 11  1  0  0  0
 10 13  1  0  0  0
 10 44  1  0  0  0
 11 12  1  0  0  0
 11 45  1  0  0  0
 11 46  1  0  0  0
 12 47  1  0  0  0
 12 48  1  0  0  0
 13 21  1  0  0  0
 13 14  2  0  0  0
 14 15  1  0  0  0
 14 49  1  0  0  0
 15 20  2  0  0  0
 15 16  1  0  0  0
 16 17  2  0  0  0
 16 22  1  0  0  0
 17 18  1  0  0  0
 17 50  1  0  0  0
 18 19  2  0  0  0
 18 51  1  0  0  0
 19 20  1  0  0  0
 20 21  1  0  0  0
 21 31  1  0  0  0
 22 27  1  0  0  0
 22 23  2  0  0  0
 23 24  1  0  0  0
 23 52  1  0  0  0
 24 25  2  0  0  0
 24 53  1  0  0  0
 25 26  1  0  0  0
 25 30  1  0  0  0
 26 27  2  0  0  0
 26 54  1  0  0  0
 27 28  1  0  0  0
 28 29  1  0  0  0
 29 55  1  0  0  0
 29 56  1  0  0  0
 29 57  1  0  0  0
M  CHG  1   7   1
M  END
> <s_m_entry_id>
246

> <s_m_entry_name>
CDK9_lig_18.1

> <s_m_Source_Path>
C:\Users\yujiethinkpad\Desktop\selection\selection\CDK9_pose

> <s_m_Source_File>
CDK9_lig_18.sdf

> <i_m_Source_File_Index>
1

> <i_lp_mmshare_version>
51139

> <i_f3d_flags>
0

> <s_epik_input>
W0NIM11OKFtDSDNdKUMoPU8pW0NIMl1OMVtDSDJdW0NIMl1bQ0hdKFtDSDJdW0NIMl0xKWMoW2NIXTIpW25IXWMoYzIzKW5bY0hdW2NIXWMzLWM0W2NIXVtjSF1jKEYpW2NIXWM0T1tDSDNd

> <s_epik_cmdline>
J2VwaWtfcHl0aG9uJywgJy1waHQnLCAnMi4wJywgJy1waCcsICc3LjAnLCAnLXRuJywgJzgnLCAnLW1hJywgJzIwMCcsICctaW1hZScsICc8aW5maWxlLm1hZT4nLCAnLW9tYWUnLCAnPG91dGZpbGUubWFlPic=

> <r_epik_Ionization_Penalty>
  0.0796

> <r_epik_Ionization_Penalty_Charging>
  0.0781

> <r_epik_Ionization_Penalty_Neutral>
  0.0015

> <r_epik_State_Penalty>
  0.0690

> <r_epik_Charging_Adjusted_Penalty>
0.147045

> <i_epik_Tot_Q>
1

> <i_epik_Tot_abs_Q>
1

> <s_lp_Force_Field>
OPLS3e

> <r_lp_Energy>
47.2127

> <b_lp_Chiralities_Consistent>
1

> <s_lp_Variant>
/home/yujie/leadopt/data/result/selection/CDK9/lig_18.sdf:1-1

> <s_i_glide_gridfile>
glide-grid_CDK9

> <i_i_glide_lignum>
16

> <i_i_glide_rotatable_bonds>
6

> <r_i_docking_score>
-8.80800064889097

> <r_i_glide_ligand_efficiency>
-0.293600021629699

> <r_i_glide_ligand_efficiency_sa>
-0.912283529922271

> <r_i_glide_ligand_efficiency_ln>
-2.00127371828176

> <r_i_glide_gscore>
-8.87700064889097

> <r_i_glide_lipo>
-2.96875393183383

> <r_i_glide_hbond>
-0.488044433101306

> <r_i_glide_metal>
0

> <r_i_glide_rewards>
-2.0947012321648

> <r_i_glide_evdw>
-43.9893760681152

> <r_i_glide_ecoul>
-9.00800895690918

> <r_i_glide_erotb>
0.325929048122714

> <r_i_glide_esite>
-0.100759952971615

> <r_i_glide_emodel>
-72.7205384702742

> <r_i_glide_energy>
-52.9973850250244

> <r_i_glide_einternal>
2.77930355072021

> <i_i_glide_confnum>
56

> <i_i_glide_posenum>
364

> <r_i_glide_eff_state_penalty>
0.069

> <r_lp_tautomer_probability>
0.999998

> <s_m_job_name>
glide-dock_SP_all

> <r_glide_shape_similarity>
0.871292591094971

> <s_m_subgroup_title>
glide-dock_SP_all_lib1

> <s_m_subgroupid>
glide-dock_SP_all_lib1

> <b_m_subgroup_collapsed>
0

$$$$
