/home/yujie/leadopt/data/result/selection/CDK9/lig_33.sdf:1
                    3D
 Schrodinger Suite 2021-2.
 62 65  0  0  1  0            999 V2000
  -42.0784  -35.0825   -0.3390 C   0  0  0  0  0  0
  -41.7956  -34.3977   -1.7147 C   0  0  0  0  0  0
  -43.0810  -34.3509   -2.5828 C   0  0  0  0  0  0
  -40.6789  -34.9760   -2.5102 N   0  0  0  0  0  0
  -40.4627  -36.3662   -2.4342 C   0  0  0  0  0  0
  -39.6077  -37.0047   -3.2489 C   0  0  0  0  0  0
  -38.9002  -36.1242   -4.2107 C   0  0  0  0  0  0
  -39.0777  -34.8571   -4.2912 N   0  0  0  0  0  0
  -39.9941  -34.2128   -3.4400 C   0  0  0  0  0  0
  -40.1872  -32.9989   -3.5484 O   0  0  0  0  0  0
  -39.4064  -38.4696   -3.2047 C   0  0  0  0  0  0
  -38.0989  -38.9974   -3.3373 C   0  0  0  0  0  0
  -37.9049  -40.3936   -3.2991 C   0  0  0  0  0  0
  -38.8974  -41.2999   -3.1705 N   0  0  0  0  0  0
  -40.1398  -40.7579   -3.0561 C   0  0  0  0  0  0
  -40.4966  -39.3747   -3.0454 C   0  0  0  0  0  0
  -41.9340  -39.3131   -2.8723 C   0  0  0  0  0  0
  -42.3674  -40.6087   -2.6763 C   0  0  0  0  0  0
  -41.2961  -41.4668   -2.8447 N   0  0  0  0  0  0
  -43.6997  -41.1776   -2.2862 C   0  0  1  0  0  0
  -44.7968  -40.1014   -2.1269 C   0  0  0  0  0  0
  -46.1928  -40.7156   -1.8880 C   0  0  0  0  0  0
  -46.4813  -41.7081   -2.9613 N   0  3  1  0  0  0
  -45.5250  -42.8359   -2.9028 C   0  0  0  0  0  0
  -44.1383  -42.2940   -3.2650 C   0  0  0  0  0  0
  -47.8990  -42.1048   -3.0754 C   0  0  0  0  0  0
  -48.5205  -41.4114   -4.3016 C   0  0  0  0  0  0
  -49.0647  -40.3124   -4.1461 O   0  0  0  0  0  0
  -48.4576  -42.0254   -5.5089 N   0  0  0  0  0  0
  -47.5847  -43.1806   -5.7926 C   0  0  0  0  0  0
  -49.2697  -41.5324   -6.6367 C   0  0  0  0  0  0
  -41.3656  -42.4754   -2.7272 H   0  0  0  0  0  0
  -42.8485  -34.5082    0.1695 H   0  0  0  0  0  0
  -42.4799  -36.0922   -0.4265 H   0  0  0  0  0  0
  -41.2187  -35.0950    0.3292 H   0  0  0  0  0  0
  -41.5391  -33.3660   -1.4711 H   0  0  0  0  0  0
  -43.8925  -33.8575   -2.0448 H   0  0  0  0  0  0
  -42.9241  -33.7975   -3.5140 H   0  0  0  0  0  0
  -43.4155  -35.3577   -2.8454 H   0  0  0  0  0  0
  -41.0416  -36.9037   -1.7015 H   0  0  0  0  0  0
  -38.2011  -36.6346   -4.8771 H   0  0  0  0  0  0
  -37.2405  -38.3489   -3.4505 H   0  0  0  0  0  0
  -36.9027  -40.7906   -3.3824 H   0  0  0  0  0  0
  -42.5284  -38.4118   -2.8225 H   0  0  0  0  0  0
  -43.5776  -41.6409   -1.3062 H   0  0  0  0  0  0
  -44.8404  -39.4926   -3.0300 H   0  0  0  0  0  0
  -44.5420  -39.4264   -1.3083 H   0  0  0  0  0  0
  -46.9404  -39.9220   -1.8993 H   0  0  0  0  0  0
  -46.2422  -41.1857   -0.9045 H   0  0  0  0  0  0
  -45.5253  -43.2879   -1.9081 H   0  0  0  0  0  0
  -45.7963  -43.6274   -3.6002 H   0  0  0  0  0  0
  -43.4192  -43.1127   -3.2560 H   0  0  0  0  0  0
  -44.1513  -41.9028   -4.2814 H   0  0  0  0  0  0
  -48.4480  -41.8134   -2.1792 H   0  0  0  0  0  0
  -48.0181  -43.1865   -3.1372 H   0  0  0  0  0  0
  -46.5384  -42.9353   -5.6044 H   0  0  0  0  0  0
  -47.6463  -43.4873   -6.8396 H   0  0  0  0  0  0
  -47.8657  -44.0492   -5.1971 H   0  0  0  0  0  0
  -50.2736  -41.2587   -6.3020 H   0  0  0  0  0  0
  -48.8279  -40.6530   -7.0983 H   0  0  0  0  0  0
  -49.3993  -42.2876   -7.4155 H   0  0  0  0  0  0
  -46.2979  -41.2397   -3.8427 H   0  0  0  0  0  0
  1  2  1  0  0  0
  1 33  1  0  0  0
  1 34  1  0  0  0
  1 35  1  0  0  0
  2  3  1  0  0  0
  2  4  1  0  0  0
  2 36  1  0  0  0
  3 37  1  0  0  0
  3 38  1  0  0  0
  3 39  1  0  0  0
  4  9  1  0  0  0
  4  5  1  0  0  0
  5  6  2  0  0  0
  5 40  1  0  0  0
  6  7  1  0  0  0
  6 11  1  0  0  0
  7  8  2  0  0  0
  7 41  1  0  0  0
  8  9  1  0  0  0
  9 10  2  0  0  0
 11 16  1  0  0  0
 11 12  2  0  0  0
 12 13  1  0  0  0
 12 42  1  0  0  0
 13 14  2  0  0  0
 13 43  1  0  0  0
 14 15  1  0  0  0
 15 19  1  0  0  0
 15 16  2  0  0  0
 16 17  1  0  0  0
 17 18  2  0  0  0
 17 44  1  0  0  0
 18 19  1  0  0  0
 18 20  1  0  0  0
 19 32  1  0  0  0
 20 25  1  0  0  0
 20 21  1  0  0  0
 20 45  1  0  0  0
 21 22  1  0  0  0
 21 46  1  0  0  0
 21 47  1  0  0  0
 22 23  1  0  0  0
 22 48  1  0  0  0
 22 49  1  0  0  0
 23 24  1  0  0  0
 23 26  1  0  0  0
 23 62  1  0  0  0
 24 25  1  0  0  0
 24 50  1  0  0  0
 24 51  1  0  0  0
 25 52  1  0  0  0
 25 53  1  0  0  0
 26 27  1  0  0  0
 26 54  1  0  0  0
 26 55  1  0  0  0
 27 28  2  0  0  0
 27 29  1  0  0  0
 29 30  1  0  0  0
 29 31  1  0  0  0
 30 56  1  0  0  0
 30 57  1  0  0  0
 30 58  1  0  0  0
 31 59  1  0  0  0
 31 60  1  0  0  0
 31 61  1  0  0  0
M  CHG  1  23   1
M  END
> <s_m_entry_id>
249

> <s_m_entry_name>
CDK9_lig_33.1

> <s_m_Source_Path>
C:\Users\yujiethinkpad\Desktop\selection\selection\CDK9_pose

> <s_m_Source_File>
CDK9_lig_33.sdf

> <i_m_Source_File_Index>
1

> <i_lp_mmshare_version>
51139

> <i_f3d_flags>
0

> <s_epik_input>
W0NIM11bQ0hdKFtDSDNdKW4xW2NIXWMoW2NIXW5jMT1PKS1jKFtjSF1bY0hdbjIpYyhjMjMpW2NIXWMoW25IXTMpW0NIXTRbQ0gyXVtDSDJdTihbQ0gyXVtDSDJdNClbQ0gyXUMoPU8pTihbQ0gzXSlbQ0gzXQ==

> <s_epik_cmdline>
J2VwaWtfcHl0aG9uJywgJy1waHQnLCAnMi4wJywgJy1waCcsICc3LjAnLCAnLXRuJywgJzgnLCAnLW1hJywgJzIwMCcsICctaW1hZScsICc8aW5maWxlLm1hZT4nLCAnLW9tYWUnLCAnPG91dGZpbGUubWFlPic=

> <r_epik_Ionization_Penalty>
  0.0783

> <r_epik_Ionization_Penalty_Charging>
  0.0781

> <r_epik_Ionization_Penalty_Neutral>
  0.0002

> <r_epik_State_Penalty>
  0.0690

> <r_epik_Charging_Adjusted_Penalty>
0.147045

> <i_epik_Tot_Q>
1

> <i_epik_Tot_abs_Q>
1

> <s_lp_Force_Field>
OPLS3e

> <r_lp_Energy>
71.1763

> <b_lp_Chiralities_Consistent>
1

> <s_lp_Variant>
/home/yujie/leadopt/data/result/selection/CDK9/lig_33.sdf:1-1

> <s_i_glide_gridfile>
glide-grid_CDK9

> <i_i_glide_lignum>
31

> <i_i_glide_rotatable_bonds>
6

> <r_i_docking_score>
-8.59372114368909

> <r_i_glide_ligand_efficiency>
-0.277216811086745

> <r_i_glide_ligand_efficiency_sa>
-0.870843525868718

> <r_i_glide_ligand_efficiency_ln>
-1.93814748382589

> <r_i_glide_gscore>
-8.66272114368909

> <r_i_glide_lipo>
-2.55591317151905

> <r_i_glide_hbond>
-0.503744160210385

> <r_i_glide_metal>
0

> <r_i_glide_rewards>
-2.0360470561003

> <r_i_glide_evdw>
-46.7522354125977

> <r_i_glide_ecoul>
-10.1594648361206

> <r_i_glide_erotb>
0.309382727657565

> <r_i_glide_esite>
-0.0148679874689485

> <r_i_glide_emodel>
-71.1189067627281

> <r_i_glide_energy>
-56.9117002487183

> <r_i_glide_einternal>
1.99775385856628

> <i_i_glide_confnum>
14

> <i_i_glide_posenum>
218

> <r_i_glide_eff_state_penalty>
0.069

> <r_lp_tautomer_probability>
0.999998

> <s_m_job_name>
glide-dock_SP_all

> <r_glide_shape_similarity>
0.810817003250122

> <s_m_subgroup_title>
glide-dock_SP_all_lib1

> <s_m_subgroupid>
glide-dock_SP_all_lib1

> <b_m_subgroup_collapsed>
0

$$$$
