/home/yujie/leadopt/data/result/selection/CDK9/lig_31.sdf:1
                    3D
 Schrodinger Suite 2021-2.
 64 68  0  0  1  0            999 V2000
  -48.1244  -46.6466   -0.7276 C   0  0  0  0  0  0
  -48.0280  -45.3656   -1.4509 N   0  0  0  0  0  0
  -48.1150  -45.4831   -2.9174 C   0  0  0  0  0  0
  -47.7913  -44.1914   -0.8000 C   0  0  0  0  0  0
  -47.6350  -44.1341    0.4263 O   0  0  0  0  0  0
  -47.6873  -42.8772   -1.6126 C   0  0  0  0  0  0
  -46.2785  -42.5530   -1.9809 N   0  3  2  0  0  0
  -45.5772  -41.7700   -0.9211 C   0  0  0  0  0  0
  -44.1032  -41.5517   -1.2798 C   0  0  0  0  0  0
  -43.9603  -40.8380   -2.6342 C   0  0  2  0  0  0
  -44.7271  -41.6479   -3.7171 C   0  0  0  0  0  0
  -46.1925  -41.8915   -3.3104 C   0  0  0  0  0  0
  -42.5170  -40.4866   -2.9005 C   0  0  0  0  0  0
  -41.9788  -39.2264   -3.0231 C   0  0  0  0  0  0
  -40.5423  -39.3743   -3.0864 C   0  0  0  0  0  0
  -39.4112  -38.5190   -3.2119 C   0  0  0  0  0  0
  -38.1226  -39.0913   -3.3118 C   0  0  0  0  0  0
  -37.9903  -40.4929   -3.2442 C   0  0  0  0  0  0
  -39.0239  -41.3577   -3.1127 N   0  0  0  0  0  0
  -40.2550  -40.7717   -3.0559 C   0  0  0  0  0  0
  -41.4792  -41.4188   -2.9375 N   0  0  0  0  0  0
  -39.5635  -37.0556   -3.3005 C   0  0  0  0  0  0
  -38.7894  -36.2712   -4.2471 C   0  0  0  0  0  0
  -38.9710  -34.9422   -4.3731 C   0  0  0  0  0  0
  -39.9472  -34.2214   -3.5556 C   0  0  0  0  0  0
  -40.1070  -33.0046   -3.6804 O   0  0  0  0  0  0
  -40.6587  -34.9940   -2.6741 N   0  0  0  0  0  0
  -40.4468  -36.3835   -2.5454 C   0  0  0  0  0  0
  -41.7282  -34.3844   -1.8645 C   0  0  0  0  0  0
  -43.0940  -35.1178   -1.9075 C   0  0  0  0  0  0
  -42.9550  -35.4525   -0.4075 C   0  0  0  0  0  0
  -41.6140  -34.7023   -0.3691 C   0  0  0  0  0  0
  -41.6228  -42.4184   -2.8166 H   0  0  0  0  0  0
  -47.1332  -47.1032   -0.6533 H   0  0  0  0  0  0
  -48.7895  -47.3457   -1.2416 H   0  0  0  0  0  0
  -48.5279  -46.5271    0.2805 H   0  0  0  0  0  0
  -49.0541  -45.0702   -3.2827 H   0  0  0  0  0  0
  -47.2891  -44.9738   -3.4073 H   0  0  0  0  0  0
  -48.0780  -46.5230   -3.2404 H   0  0  0  0  0  0
  -48.3262  -42.9348   -2.4926 H   0  0  0  0  0  0
  -48.1030  -42.0599   -1.0188 H   0  0  0  0  0  0
  -46.0696  -40.8068   -0.7722 H   0  0  0  0  0  0
  -45.6378  -42.2979    0.0303 H   0  0  0  0  0  0
  -43.6281  -40.9670   -0.4919 H   0  0  0  0  0  0
  -43.5778  -42.5060   -1.3011 H   0  0  0  0  0  0
  -44.4862  -39.8849   -2.5375 H   0  0  0  0  0  0
  -44.2149  -42.5919   -3.9162 H   0  0  0  0  0  0
  -44.8264  -41.1014   -4.6538 H   0  0  0  0  0  0
  -46.6723  -42.5111   -4.0684 H   0  0  0  0  0  0
  -46.7373  -40.9452   -3.2842 H   0  0  0  0  0  0
  -42.5166  -38.2895   -3.0360 H   0  0  0  0  0  0
  -37.2418  -38.4713   -3.4109 H   0  0  0  0  0  0
  -37.0084  -40.9410   -3.2996 H   0  0  0  0  0  0
  -38.0544  -36.7566   -4.8725 H   0  0  0  0  0  0
  -38.3769  -34.3891   -5.0829 H   0  0  0  0  0  0
  -41.0647  -36.8794   -1.8134 H   0  0  0  0  0  0
  -41.8679  -33.3111   -2.0142 H   0  0  0  0  0  0
  -43.9245  -34.4402   -2.1056 H   0  0  0  0  0  0
  -43.1409  -35.9883   -2.5624 H   0  0  0  0  0  0
  -43.7168  -34.9966    0.2284 H   0  0  0  0  0  0
  -42.8671  -36.5200   -0.2131 H   0  0  0  0  0  0
  -40.7658  -35.3128   -0.0618 H   0  0  0  0  0  0
  -41.6306  -33.7487    0.1444 H   0  0  0  0  0  0
  -45.7730  -43.4323   -2.0715 H   0  0  0  0  0  0
  1  2  1  0  0  0
  1 34  1  0  0  0
  1 35  1  0  0  0
  1 36  1  0  0  0
  2  3  1  0  0  0
  2  4  1  0  0  0
  3 37  1  0  0  0
  3 38  1  0  0  0
  3 39  1  0  0  0
  4  5  2  0  0  0
  4  6  1  0  0  0
  6  7  1  0  0  0
  6 40  1  0  0  0
  6 41  1  0  0  0
  7 12  1  0  0  0
  7  8  1  0  0  0
  7 64  1  0  0  0
  8  9  1  0  0  0
  8 42  1  0  0  0
  8 43  1  0  0  0
  9 10  1  0  0  0
  9 44  1  0  0  0
  9 45  1  0  0  0
 10 11  1  0  0  0
 10 13  1  0  0  0
 10 46  1  0  0  0
 11 12  1  0  0  0
 11 47  1  0  0  0
 11 48  1  0  0  0
 12 49  1  0  0  0
 12 50  1  0  0  0
 13 21  1  0  0  0
 13 14  2  0  0  0
 14 15  1  0  0  0
 14 51  1  0  0  0
 15 20  2  0  0  0
 15 16  1  0  0  0
 16 17  2  0  0  0
 16 22  1  0  0  0
 17 18  1  0  0  0
 17 52  1  0  0  0
 18 19  2  0  0  0
 18 53  1  0  0  0
 19 20  1  0  0  0
 20 21  1  0  0  0
 21 33  1  0  0  0
 22 28  2  0  0  0
 22 23  1  0  0  0
 23 24  2  0  0  0
 23 54  1  0  0  0
 24 25  1  0  0  0
 24 55  1  0  0  0
 25 26  2  0  0  0
 25 27  1  0  0  0
 27 28  1  0  0  0
 27 29  1  0  0  0
 28 56  1  0  0  0
 29 32  1  0  0  0
 29 30  1  0  0  0
 29 57  1  0  0  0
 30 31  1  0  0  0
 30 58  1  0  0  0
 30 59  1  0  0  0
 31 32  1  0  0  0
 31 60  1  0  0  0
 31 61  1  0  0  0
 32 62  1  0  0  0
 32 63  1  0  0  0
M  CHG  1   7   1
M  END
> <s_m_entry_id>
239

> <s_m_entry_name>
CDK9_lig_31.1

> <s_m_Source_Path>
C:\Users\yujiethinkpad\Desktop\selection\selection\CDK9_pose

> <s_m_Source_File>
CDK9_lig_31.sdf

> <i_m_Source_File_Index>
1

> <i_lp_mmshare_version>
51139

> <i_f3d_flags>
0

> <s_epik_input>
W0NIM11OKFtDSDNdKUMoPU8pW0NIMl1OMVtDSDJdW0NIMl1bQ0hdKFtDSDJdW0NIMl0xKWMoW2NIXTIpW25IXWMoYzIzKW5bY0hdW2NIXWMzLWM0W2NIXVtjSF1jKD1PKW4oW2NIXTQpW0NIXTVbQ0gyXVtDSDJdW0NIMl01

> <s_epik_cmdline>
J2VwaWtfcHl0aG9uJywgJy1waHQnLCAnMi4wJywgJy1waCcsICc3LjAnLCAnLXRuJywgJzgnLCAnLW1hJywgJzIwMCcsICctaW1hZScsICc8aW5maWxlLm1hZT4nLCAnLW9tYWUnLCAnPG91dGZpbGUubWFlPic=

> <r_epik_Ionization_Penalty>
  0.0792

> <r_epik_Ionization_Penalty_Charging>
  0.0781

> <r_epik_Ionization_Penalty_Neutral>
  0.0011

> <r_epik_State_Penalty>
  0.0690

> <r_epik_Charging_Adjusted_Penalty>
0.147046

> <i_epik_Tot_Q>
1

> <i_epik_Tot_abs_Q>
1

> <s_lp_Force_Field>
OPLS3e

> <r_lp_Energy>
75.7789

> <b_lp_Chiralities_Consistent>
1

> <s_lp_Variant>
/home/yujie/leadopt/data/result/selection/CDK9/lig_31.sdf:1-1

> <s_i_glide_gridfile>
glide-grid_CDK9

> <i_i_glide_lignum>
29

> <i_i_glide_rotatable_bonds>
6

> <r_i_docking_score>
-8.99870796504308

> <r_i_glide_ligand_efficiency>
-0.281209623907596

> <r_i_glide_ligand_efficiency_sa>
-0.892784904597615

> <r_i_glide_ligand_efficiency_ln>
-2.01505600888791

> <r_i_glide_gscore>
-9.06770796504308

> <r_i_glide_lipo>
-2.73821260830796

> <r_i_glide_hbond>
-0.604553767952037

> <r_i_glide_metal>
0

> <r_i_glide_rewards>
-2.03372075226645

> <r_i_glide_evdw>
-46.8479690551758

> <r_i_glide_ecoul>
-11.2824745178223

> <r_i_glide_erotb>
0.369146717167264

> <r_i_glide_esite>
-0.0255979232517675

> <r_i_glide_emodel>
-65.336268534732

> <r_i_glide_energy>
-58.130443572998

> <r_i_glide_einternal>
2.17982411384583

> <i_i_glide_confnum>
90

> <i_i_glide_posenum>
224

> <r_i_glide_eff_state_penalty>
0.069

> <r_lp_tautomer_probability>
0.999998

> <s_m_job_name>
glide-dock_SP_all

> <r_glide_shape_similarity>
0.710154592990875

> <s_m_subgroup_title>
glide-dock_SP_all_lib1

> <s_m_subgroupid>
glide-dock_SP_all_lib1

> <b_m_subgroup_collapsed>
0

$$$$
