/home/yujie/leadopt/data/result/selection/CDK9/lig_3.sdf:1
                    3D
 Schrodinger Suite 2021-2.
 54 58  0  0  1  0            999 V2000
  -41.2580  -36.2782    0.0361 C   0  0  0  0  0  0
  -40.7196  -36.9845   -1.0782 O   0  0  0  0  0  0
  -40.3023  -36.2701   -2.1869 C   0  0  0  0  0  0
  -40.4873  -34.8683   -2.3262 C   0  0  0  0  0  0
  -39.9932  -34.1874   -3.4560 C   0  0  0  0  0  0
  -39.3108  -34.8919   -4.4598 C   0  0  0  0  0  0
  -39.1388  -36.2797   -4.3407 C   0  0  0  0  0  0
  -39.6395  -36.9840   -3.2217 C   0  0  0  0  0  0
  -39.4160  -38.4419   -3.1708 C   0  0  0  0  0  0
  -38.0898  -38.9388   -3.2859 C   0  0  0  0  0  0
  -37.8383  -40.3287   -3.2729 C   0  0  0  0  0  0
  -38.7953  -41.2723   -3.1556 N   0  0  0  0  0  0
  -40.0513  -40.7652   -3.0548 C   0  0  0  0  0  0
  -40.4639  -39.3977   -3.0515 C   0  0  0  0  0  0
  -41.8503  -39.3063   -2.9106 N   0  0  0  0  0  0
  -42.2087  -40.5956   -2.7794 C   0  0  0  0  0  0
  -41.1992  -41.4838   -2.8742 N   0  0  0  0  0  0
  -43.5449  -41.1011   -2.5481 C   0  0  0  0  0  0
  -44.4156  -40.5513   -1.5817 C   0  0  0  0  0  0
  -45.6691  -41.1620   -1.3696 C   0  0  0  0  0  0
  -46.0464  -42.2947   -2.1331 C   0  0  0  0  0  0
  -45.1489  -42.8749   -3.0420 C   0  0  0  0  0  0
  -43.9026  -42.2819   -3.2289 C   0  0  0  0  0  0
  -47.4608  -42.8342   -2.1192 C   0  0  0  0  0  0
  -48.3471  -42.0823   -3.0216 N   0  0  0  0  0  0
  -48.7216  -40.7696   -2.4678 C   0  0  0  0  0  0
  -49.7333  -40.0376   -3.3675 C   0  0  0  0  0  0
  -49.1494  -39.9026   -4.6600 O   0  0  0  0  0  0
  -48.8373  -41.1584   -5.2823 C   0  0  0  0  0  0
  -47.8395  -41.9424   -4.4043 C   0  0  0  0  0  0
  -40.1693  -32.8506   -3.5864 F   0  0  0  0  0  0
  -41.3038  -42.4897   -2.7559 H   0  0  0  0  0  0
  -41.4833  -36.9865    0.8327 H   0  0  0  0  0  0
  -40.5503  -35.5528    0.4381 H   0  0  0  0  0  0
  -42.1868  -35.7686   -0.2199 H   0  0  0  0  0  0
  -40.9978  -34.2853   -1.5748 H   0  0  0  0  0  0
  -38.9334  -34.3699   -5.3247 H   0  0  0  0  0  0
  -38.6222  -36.8137   -5.1263 H   0  0  0  0  0  0
  -37.2545  -38.2597   -3.3850 H   0  0  0  0  0  0
  -36.8258  -40.6944   -3.3628 H   0  0  0  0  0  0
  -44.1289  -39.6764   -1.0145 H   0  0  0  0  0  0
  -46.3558  -40.7347   -0.6555 H   0  0  0  0  0  0
  -45.4148  -43.7550   -3.6075 H   0  0  0  0  0  0
  -43.1901  -42.7604   -3.8654 H   0  0  0  0  0  0
  -47.8517  -42.8159   -1.1004 H   0  0  0  0  0  0
  -47.4407  -43.8838   -2.4138 H   0  0  0  0  0  0
  -47.8460  -40.1361   -2.3616 H   0  0  0  0  0  0
  -49.1397  -40.8875   -1.4687 H   0  0  0  0  0  0
  -50.6715  -40.5880   -3.4334 H   0  0  0  0  0  0
  -49.9630  -39.0518   -2.9651 H   0  0  0  0  0  0
  -49.7558  -41.7291   -5.4254 H   0  0  0  0  0  0
  -48.4266  -40.9693   -6.2701 H   0  0  0  0  0  0
  -47.6507  -42.9224   -4.8406 H   0  0  0  0  0  0
  -46.8977  -41.3952   -4.4134 H   0  0  0  0  0  0
  1  2  1  0  0  0
  1 33  1  0  0  0
  1 34  1  0  0  0
  1 35  1  0  0  0
  2  3  1  0  0  0
  3  8  1  0  0  0
  3  4  2  0  0  0
  4  5  1  0  0  0
  4 36  1  0  0  0
  5  6  2  0  0  0
  5 31  1  0  0  0
  6  7  1  0  0  0
  6 37  1  0  0  0
  7  8  2  0  0  0
  7 38  1  0  0  0
  8  9  1  0  0  0
  9 14  1  0  0  0
  9 10  2  0  0  0
 10 11  1  0  0  0
 10 39  1  0  0  0
 11 12  2  0  0  0
 11 40  1  0  0  0
 12 13  1  0  0  0
 13 17  1  0  0  0
 13 14  2  0  0  0
 14 15  1  0  0  0
 15 16  2  0  0  0
 16 17  1  0  0  0
 16 18  1  0  0  0
 17 32  1  0  0  0
 18 23  1  0  0  0
 18 19  2  0  0  0
 19 20  1  0  0  0
 19 41  1  0  0  0
 20 21  2  0  0  0
 20 42  1  0  0  0
 21 22  1  0  0  0
 21 24  1  0  0  0
 22 23  2  0  0  0
 22 43  1  0  0  0
 23 44  1  0  0  0
 24 25  1  0  0  0
 24 45  1  0  0  0
 24 46  1  0  0  0
 25 30  1  0  0  0
 25 26  1  0  0  0
 26 27  1  0  0  0
 26 47  1  0  0  0
 26 48  1  0  0  0
 27 28  1  0  0  0
 27 49  1  0  0  0
 27 50  1  0  0  0
 28 29  1  0  0  0
 29 30  1  0  0  0
 29 51  1  0  0  0
 29 52  1  0  0  0
 30 53  1  0  0  0
 30 54  1  0  0  0
M  END
> <s_m_entry_id>
255

> <s_m_entry_name>
CDK9_lig_3.1

> <s_m_Source_Path>
C:\Users\yujiethinkpad\Desktop\selection\selection\CDK9_pose

> <s_m_Source_File>
CDK9_lig_3.sdf

> <i_m_Source_File_Index>
1

> <i_lp_mmshare_version>
51139

> <i_f3d_flags>
0

> <s_epik_input>
W0NIM11PYzFbY0hdYyhGKVtjSF1bY0hdYzEtYyhbY0hdW2NIXW4yKWMoYzIzKW5jKFtuSF0zKS1jNFtjSF1bY0hdYyhbY0hdW2NIXTQpW0NIMl1ONVtDSDJdW0NIMl1PW0NIMl1bQ0gyXTU=

> <s_epik_cmdline>
J2VwaWtfcHl0aG9uJywgJy1waHQnLCAnMi4wJywgJy1waCcsICc3LjAnLCAnLXRuJywgJzgnLCAnLW1hJywgJzIwMCcsICctaW1hZScsICc8aW5maWxlLm1hZT4nLCAnLW9tYWUnLCAnPG91dGZpbGUubWFlPic=

> <r_epik_Ionization_Penalty>
  0.2857

> <r_epik_Ionization_Penalty_Charging>
  0.0010

> <r_epik_Ionization_Penalty_Neutral>
  0.2847

> <r_epik_State_Penalty>
  0.9016

> <r_epik_Charging_Adjusted_Penalty>
0.90254

> <i_epik_Tot_Q>
0

> <i_epik_Tot_abs_Q>
0

> <s_lp_Force_Field>
OPLS3e

> <r_lp_Energy>
49.0705

> <b_lp_Chiralities_Consistent>
1

> <s_lp_Variant>
/home/yujie/leadopt/data/result/selection/CDK9/lig_3.sdf:1-3

> <s_i_glide_gridfile>
glide-grid_CDK9

> <i_i_glide_lignum>
2

> <i_i_glide_rotatable_bonds>
5

> <r_i_docking_score>
-8.11555150172079

> <r_i_glide_ligand_efficiency>
-0.261791983926477

> <r_i_glide_ligand_efficiency_sa>
-0.822388272316437

> <r_i_glide_ligand_efficiency_ln>
-1.83030557542241

> <r_i_glide_gscore>
-9.01715150172079

> <r_i_glide_lipo>
-2.73526961139737

> <r_i_glide_hbond>
-0.612481602408661

> <r_i_glide_metal>
0

> <r_i_glide_rewards>
-2.31122251666693

> <r_i_glide_evdw>
-44.6194000244141

> <r_i_glide_ecoul>
-9.01330280303955

> <r_i_glide_erotb>
0.316190261425573

> <r_i_glide_esite>
-0.0914026109967715

> <r_i_glide_emodel>
-63.8169195426799

> <r_i_glide_energy>
-53.6327028274536

> <r_i_glide_einternal>
5.20423078536987

> <i_i_glide_confnum>
17

> <i_i_glide_posenum>
67

> <r_i_glide_eff_state_penalty>
0.9016

> <r_lp_tautomer_probability>
0.357409

> <s_m_job_name>
glide-dock_SP_all

> <r_glide_shape_similarity>
0.827977478504181

> <s_m_subgroup_title>
glide-dock_SP_all_lib1

> <s_m_subgroupid>
glide-dock_SP_all_lib1

> <b_m_subgroup_collapsed>
0

$$$$
