/home/yujie/leadopt/data/result/selection/CDK9/lig_2.sdf:1
                    3D
 Schrodinger Suite 2021-2.
 65 70  0  0  1  0            999 V2000
  -45.4743  -42.6342   -3.0742 C   0  0  0  0  0  0
  -44.1171  -42.2694   -3.0439 C   0  0  0  0  0  0
  -43.7303  -40.9324   -2.7742 C   0  0  0  0  0  0
  -44.7205  -39.9716   -2.4716 C   0  0  0  0  0  0
  -46.0835  -40.3414   -2.4917 C   0  0  0  0  0  0
  -46.4633  -41.6627   -2.8119 C   0  0  0  0  0  0
  -47.9294  -42.0366   -2.8046 C   0  0  0  0  0  0
  -48.4022  -42.3276   -1.4134 N   0  3  0  0  0  0
  -47.8323  -43.5903   -0.8429 C   0  0  0  0  0  0
  -48.3741  -43.8493    0.5855 C   0  0  0  0  0  0
  -49.8049  -43.8538    0.5846 O   0  0  0  0  0  0
  -50.3485  -42.6093    0.1429 C   0  0  0  0  0  0
  -49.8958  -42.3293   -1.3110 C   0  0  0  0  0  0
  -42.3209  -40.5847   -2.8598 C   0  0  0  0  0  0
  -41.3484  -41.4997   -2.9417 N   0  0  0  0  0  0
  -40.1825  -40.8050   -3.0575 C   0  0  0  0  0  0
  -40.4357  -39.4220   -3.0490 C   0  0  0  0  0  0
  -41.7988  -39.3106   -2.9231 N   0  0  0  0  0  0
  -39.3458  -38.5491   -3.1779 C   0  0  0  0  0  0
  -38.0557  -39.1006   -3.2914 C   0  0  0  0  0  0
  -37.9290  -40.5010   -3.2598 C   0  0  0  0  0  0
  -38.9661  -41.3551   -3.1416 N   0  0  0  0  0  0
  -39.5336  -37.1244   -3.1889 C   0  0  0  0  0  0
  -39.1964  -36.3956   -4.3443 C   0  0  0  0  0  0
  -39.5104  -35.0368   -4.4073 C   0  0  0  0  0  0
  -40.1532  -34.4207   -3.3196 C   0  0  0  0  0  0
  -40.3438  -35.1359   -2.1067 C   0  0  0  0  0  0
  -40.0841  -36.5029   -2.0592 C   0  0  0  0  0  0
  -40.6322  -33.0224   -3.5070 C   0  0  0  0  0  0
  -39.9927  -32.2973   -4.2581 O   0  0  0  0  0  0
  -41.8153  -32.6212   -3.0379 N   0  0  0  0  0  0
  -42.3014  -31.2711   -3.3653 C   0  0  0  0  0  0
  -43.2469  -30.9292   -2.2287 C   0  0  0  0  0  0
  -43.7945  -32.2990   -1.7611 C   0  0  0  0  0  0
  -42.6333  -33.2385   -1.9709 C   0  0  0  0  0  0
  -42.3338  -38.4488   -2.9002 H   0  0  0  0  0  0
  -45.7521  -43.6575   -3.2907 H   0  0  0  0  0  0
  -43.3555  -43.0207   -3.2441 H   0  0  0  0  0  0
  -44.4471  -38.9530   -2.2423 H   0  0  0  0  0  0
  -46.8324  -39.5945   -2.2662 H   0  0  0  0  0  0
  -48.4960  -41.2002   -3.2155 H   0  0  0  0  0  0
  -48.1162  -42.8929   -3.4528 H   0  0  0  0  0  0
  -48.0864  -44.4324   -1.4924 H   0  0  0  0  0  0
  -46.7482  -43.5341   -0.8007 H   0  0  0  0  0  0
  -48.0116  -43.0988    1.2838 H   0  0  0  0  0  0
  -48.0144  -44.8143    0.9514 H   0  0  0  0  0  0
  -50.0420  -41.7962    0.8011 H   0  0  0  0  0  0
  -51.4366  -42.6637    0.1890 H   0  0  0  0  0  0
  -50.2968  -41.3709   -1.6462 H   0  0  0  0  0  0
  -50.3023  -43.0943   -1.9784 H   0  0  0  0  0  0
  -37.1815  -38.4731   -3.3920 H   0  0  0  0  0  0
  -36.9488  -40.9521   -3.3278 H   0  0  0  0  0  0
  -38.7560  -36.8932   -5.1984 H   0  0  0  0  0  0
  -39.3211  -34.4999   -5.3237 H   0  0  0  0  0  0
  -40.7328  -34.6951   -1.2081 H   0  0  0  0  0  0
  -40.3011  -37.0728   -1.1682 H   0  0  0  0  0  0
  -42.8289  -31.3062   -4.3133 H   0  0  0  0  0  0
  -41.5159  -30.5168   -3.4274 H   0  0  0  0  0  0
  -44.0090  -30.2559   -2.6064 H   0  0  0  0  0  0
  -42.8276  -30.4014   -1.3860 H   0  0  0  0  0  0
  -44.1443  -32.2884   -0.7284 H   0  0  0  0  0  0
  -44.5993  -32.6926   -2.3843 H   0  0  0  0  0  0
  -42.0787  -33.2203   -1.0346 H   0  0  0  0  0  0
  -42.9523  -34.2520   -2.2001 H   0  0  0  0  0  0
  -48.0709  -41.5692   -0.8210 H   0  0  0  0  0  0
  1  6  1  0  0  0
  1  2  2  0  0  0
  1 37  1  0  0  0
  2  3  1  0  0  0
  2 38  1  0  0  0
  3  4  2  0  0  0
  3 14  1  0  0  0
  4  5  1  0  0  0
  4 39  1  0  0  0
  5  6  2  0  0  0
  5 40  1  0  0  0
  6  7  1  0  0  0
  7  8  1  0  0  0
  7 41  1  0  0  0
  7 42  1  0  0  0
  8 13  1  0  0  0
  8  9  1  0  0  0
  8 65  1  0  0  0
  9 10  1  0  0  0
  9 43  1  0  0  0
  9 44  1  0  0  0
 10 11  1  0  0  0
 10 45  1  0  0  0
 10 46  1  0  0  0
 11 12  1  0  0  0
 12 13  1  0  0  0
 12 47  1  0  0  0
 12 48  1  0  0  0
 13 49  1  0  0  0
 13 50  1  0  0  0
 14 15  2  0  0  0
 14 18  1  0  0  0
 15 16  1  0  0  0
 16 22  1  0  0  0
 16 17  2  0  0  0
 17 18  1  0  0  0
 17 19  1  0  0  0
 18 36  1  0  0  0
 19 23  1  0  0  0
 19 20  2  0  0  0
 20 51  1  0  0  0
 20 21  1  0  0  0
 21 52  1  0  0  0
 21 22  2  0  0  0
 23 28  1  0  0  0
 23 24  2  0  0  0
 24 25  1  0  0  0
 24 53  1  0  0  0
 25 26  2  0  0  0
 25 54  1  0  0  0
 26 27  1  0  0  0
 26 29  1  0  0  0
 27 28  2  0  0  0
 27 55  1  0  0  0
 28 56  1  0  0  0
 29 30  2  0  0  0
 29 31  1  0  0  0
 31 35  1  0  0  0
 31 32  1  0  0  0
 32 33  1  0  0  0
 32 57  1  0  0  0
 32 58  1  0  0  0
 33 34  1  0  0  0
 33 59  1  0  0  0
 33 60  1  0  0  0
 34 35  1  0  0  0
 34 61  1  0  0  0
 34 62  1  0  0  0
 35 63  1  0  0  0
 35 64  1  0  0  0
M  CHG  1   8   1
M  END
> <s_m_entry_id>
262

> <s_m_entry_name>
CDK9_lig_2.1

> <s_m_Source_Path>
C:\Users\yujiethinkpad\Desktop\selection\selection\CDK9_pose

> <s_m_Source_File>
CDK9_lig_2.sdf

> <i_m_Source_File_Index>
1

> <i_lp_mmshare_version>
51139

> <i_f3d_flags>
0

> <s_epik_input>
W0NIMl0xW0NIMl1PW0NIMl1bQ0gyXU4xW0NIMl1jKFtjSF1bY0hdMilbY0hdW2NIXWMyLWMoW25IXTMpbmMoYzM0KWMoW2NIXVtjSF1uNCktYzVbY0hdW2NIXWMoW2NIXVtjSF01KUMoPU8pTjZbQ0gyXVtDSDJdW0NIMl1bQ0gyXTY=

> <s_epik_cmdline>
J2VwaWtfcHl0aG9uJywgJy1waHQnLCAnMi4wJywgJy1waCcsICc3LjAnLCAnLXRuJywgJzgnLCAnLW1hJywgJzIwMCcsICctaW1hZScsICc8aW5maWxlLm1hZT4nLCAnLW9tYWUnLCAnPG91dGZpbGUubWFlPic=

> <r_epik_Ionization_Penalty>
  0.5833

> <r_epik_Ionization_Penalty_Charging>
  0.5711

> <r_epik_Ionization_Penalty_Neutral>
  0.0123

> <r_epik_State_Penalty>
  0.8371

> <r_epik_Charging_Adjusted_Penalty>
1.40814

> <i_epik_Tot_Q>
1

> <i_epik_Tot_abs_Q>
1

> <s_lp_Force_Field>
OPLS3e

> <r_lp_Energy>
57.2384

> <b_lp_Chiralities_Consistent>
1

> <s_lp_Variant>
/home/yujie/leadopt/data/result/selection/CDK9/lig_2.sdf:1-2

> <s_i_glide_gridfile>
glide-grid_CDK9

> <i_i_glide_lignum>
1

> <i_i_glide_rotatable_bonds>
6

> <r_i_docking_score>
-6.95767575721886

> <r_i_glide_ligand_efficiency>
-0.198790735920539

> <r_i_glide_ligand_efficiency_sa>
-0.650257678276641

> <r_i_glide_ligand_efficiency_ln>
-1.52736424600319

> <r_i_glide_gscore>
-7.79477575721886

> <r_i_glide_lipo>
-2.44240695112772

> <r_i_glide_hbond>
-0.404803481939417

> <r_i_glide_metal>
0

> <r_i_glide_rewards>
-1.87257443774201

> <r_i_glide_evdw>
-42.3892784118652

> <r_i_glide_ecoul>
-8.75856399536133

> <r_i_glide_erotb>
0.551770840055142

> <r_i_glide_esite>
-0.193513206567395

> <r_i_glide_emodel>
-42.2145826248667

> <r_i_glide_energy>
-51.1478424072266

> <r_i_glide_einternal>
4.25033187866211

> <i_i_glide_confnum>
12

> <i_i_glide_posenum>
76

> <r_i_glide_eff_state_penalty>
0.8371

> <r_lp_tautomer_probability>
0.641916

> <s_m_job_name>
glide-dock_SP_all

> <r_glide_shape_similarity>
0.637057363986969

> <s_m_subgroup_title>
glide-dock_SP_all_lib1

> <s_m_subgroupid>
glide-dock_SP_all_lib1

> <b_m_subgroup_collapsed>
0

$$$$
