/home/yujie/leadopt/data/result/selection/CDK9/lig_14.sdf:1
                    3D
 Schrodinger Suite 2021-2.
 63 67  0  0  1  0            999 V2000
  -47.3621  -42.8609   -5.2712 C   0  0  0  0  0  0
  -47.3809  -41.7332   -4.2343 C   0  0  0  0  0  0
  -48.1292  -40.7710   -4.4454 O   0  0  0  0  0  0
  -46.5646  -41.8187   -3.1493 N   0  0  0  0  0  0
  -46.3502  -40.7276   -2.1876 C   0  0  0  0  0  0
  -44.9481  -40.0968   -2.4204 C   0  0  0  0  0  0
  -43.8140  -41.1535   -2.3952 C   0  0  0  0  0  0
  -44.2008  -42.3749   -3.2605 C   0  0  0  0  0  0
  -45.6034  -42.9029   -2.9094 C   0  0  0  0  0  0
  -42.4490  -40.6120   -2.7482 C   0  0  0  0  0  0
  -41.9772  -39.3210   -2.9190 C   0  0  0  0  0  0
  -40.5339  -39.4172   -3.0621 C   0  0  0  0  0  0
  -39.4229  -38.5315   -3.1795 C   0  0  0  0  0  0
  -38.1245  -39.0757   -3.2821 C   0  0  0  0  0  0
  -37.9570  -40.4725   -3.2507 C   0  0  0  0  0  0
  -38.9653  -41.3617   -3.1399 N   0  0  0  0  0  0
  -40.2036  -40.8054   -3.0558 C   0  0  0  0  0  0
  -41.3784  -41.4892   -2.8819 N   0  0  0  0  0  0
  -39.5939  -37.0828   -3.2019 C   0  0  0  0  0  0
  -39.1748  -36.3635   -4.3519 C   0  0  0  0  0  0
  -39.4693  -34.9995   -4.4782 C   0  0  0  0  0  0
  -40.1356  -34.3427   -3.4181 C   0  0  0  0  0  0
  -40.3465  -35.0157   -2.2099 C   0  0  0  0  0  0
  -40.1582  -36.3970   -2.0899 C   0  0  0  0  0  0
  -40.5089  -37.0991   -0.9535 O   0  0  0  0  0  0
  -41.2268  -36.4021    0.0784 C   0  0  0  0  0  0
  -40.6339  -32.9470   -3.6101 C   0  0  0  0  0  0
  -40.0288  -32.2357   -4.3827 O   0  0  0  0  0  0
  -41.7846  -32.5100   -3.0426 N   0  0  0  0  0  0
  -42.2603  -31.1385   -3.3154 C   0  0  0  0  0  0
  -43.3311  -30.8855   -2.2585 C   0  0  0  0  0  0
  -43.9022  -32.2956   -1.9432 C   0  0  0  0  0  0
  -42.6650  -33.1734   -2.0602 C   0  0  0  0  0  0
  -41.4663  -42.4995   -2.7511 H   0  0  0  0  0  0
  -46.3694  -42.9632   -5.7168 H   0  0  0  0  0  0
  -48.0722  -42.6568   -6.0766 H   0  0  0  0  0  0
  -47.6499  -43.8096   -4.8158 H   0  0  0  0  0  0
  -47.1157  -39.9510   -2.2596 H   0  0  0  0  0  0
  -46.4227  -41.1070   -1.1667 H   0  0  0  0  0  0
  -44.9453  -39.6011   -3.3921 H   0  0  0  0  0  0
  -44.7563  -39.3210   -1.6763 H   0  0  0  0  0  0
  -43.7537  -41.5096   -1.3659 H   0  0  0  0  0  0
  -43.4814  -43.1839   -3.1248 H   0  0  0  0  0  0
  -44.1634  -42.1029   -4.3164 H   0  0  0  0  0  0
  -45.6466  -43.1975   -1.8604 H   0  0  0  0  0  0
  -45.8111  -43.8143   -3.4669 H   0  0  0  0  0  0
  -42.5493  -38.4058   -2.8786 H   0  0  0  0  0  0
  -37.2651  -38.4276   -3.3801 H   0  0  0  0  0  0
  -36.9685  -40.8924   -3.3198 H   0  0  0  0  0  0
  -38.7080  -36.8892   -5.1835 H   0  0  0  0  0  0
  -39.2518  -34.4869   -5.4014 H   0  0  0  0  0  0
  -40.7027  -34.4591   -1.3541 H   0  0  0  0  0  0
  -41.4707  -37.0996    0.8866 H   0  0  0  0  0  0
  -40.6392  -35.6026    0.5367 H   0  0  0  0  0  0
  -42.1726  -35.9988   -0.2873 H   0  0  0  0  0  0
  -41.4594  -30.4049   -3.2401 H   0  0  0  0  0  0
  -42.6768  -31.0983   -4.3207 H   0  0  0  0  0  0
  -42.8415  -30.4960   -1.3678 H   0  0  0  0  0  0
  -44.0285  -30.1209   -2.5813 H   0  0  0  0  0  0
  -44.5968  -32.6892   -2.6888 H   0  0  0  0  0  0
  -44.3719  -32.3470   -0.9610 H   0  0  0  0  0  0
  -42.9339  -34.1959   -2.3338 H   0  0  0  0  0  0
  -42.1870  -33.1644   -1.0771 H   0  0  0  0  0  0
  1  2  1  0  0  0
  1 35  1  0  0  0
  1 36  1  0  0  0
  1 37  1  0  0  0
  2  3  2  0  0  0
  2  4  1  0  0  0
  4  9  1  0  0  0
  4  5  1  0  0  0
  5  6  1  0  0  0
  5 38  1  0  0  0
  5 39  1  0  0  0
  6  7  1  0  0  0
  6 40  1  0  0  0
  6 41  1  0  0  0
  7  8  1  0  0  0
  7 10  1  0  0  0
  7 42  1  0  0  0
  8  9  1  0  0  0
  8 43  1  0  0  0
  8 44  1  0  0  0
  9 45  1  0  0  0
  9 46  1  0  0  0
 10 18  1  0  0  0
 10 11  2  0  0  0
 11 12  1  0  0  0
 11 47  1  0  0  0
 12 17  2  0  0  0
 12 13  1  0  0  0
 13 14  2  0  0  0
 13 19  1  0  0  0
 14 15  1  0  0  0
 14 48  1  0  0  0
 15 16  2  0  0  0
 15 49  1  0  0  0
 16 17  1  0  0  0
 17 18  1  0  0  0
 18 34  1  0  0  0
 19 24  1  0  0  0
 19 20  2  0  0  0
 20 21  1  0  0  0
 20 50  1  0  0  0
 21 22  2  0  0  0
 21 51  1  0  0  0
 22 23  1  0  0  0
 22 27  1  0  0  0
 23 24  2  0  0  0
 23 52  1  0  0  0
 24 25  1  0  0  0
 25 26  1  0  0  0
 26 53  1  0  0  0
 26 54  1  0  0  0
 26 55  1  0  0  0
 27 28  2  0  0  0
 27 29  1  0  0  0
 29 33  1  0  0  0
 29 30  1  0  0  0
 30 31  1  0  0  0
 30 56  1  0  0  0
 30 57  1  0  0  0
 31 32  1  0  0  0
 31 58  1  0  0  0
 31 59  1  0  0  0
 32 33  1  0  0  0
 32 60  1  0  0  0
 32 61  1  0  0  0
 33 62  1  0  0  0
 33 63  1  0  0  0
M  END
> <s_m_entry_id>
232

> <s_m_entry_name>
CDK9_lig_14.1

> <s_m_Source_Path>
C:\Users\yujiethinkpad\Desktop\selection\selection\CDK9_pose

> <s_m_Source_File>
CDK9_lig_14.sdf

> <i_m_Source_File_Index>
1

> <i_lp_mmshare_version>
51139

> <i_f3d_flags>
0

> <s_epik_input>
W0NIM11DKD1PKU4xW0NIMl1bQ0gyXVtDSF0oW0NIMl1bQ0gyXTEpYyhbY0hdMilbbkhdYyhjMjMpbltjSF1bY0hdYzMtYzRbY0hdW2NIXWMoW2NIXWM0T1tDSDNdKUMoPU8pTjVbQ0gyXVtDSDJdW0NIMl1bQ0gyXTU=

> <s_epik_cmdline>
J2VwaWtfcHl0aG9uJywgJy1waHQnLCAnMi4wJywgJy1waCcsICc3LjAnLCAnLXRuJywgJzgnLCAnLW1hJywgJzIwMCcsICctaW1hZScsICc8aW5maWxlLm1hZT4nLCAnLW9tYWUnLCAnPG91dGZpbGUubWFlPic=

> <r_epik_Ionization_Penalty>
  0.0033

> <r_epik_Ionization_Penalty_Charging>
  0.0000

> <r_epik_Ionization_Penalty_Neutral>
  0.0033

> <r_epik_State_Penalty>
  0.0023

> <r_epik_Charging_Adjusted_Penalty>
0.00230214

> <i_epik_Tot_Q>
0

> <i_epik_Tot_abs_Q>
0

> <s_lp_Force_Field>
OPLS3e

> <r_lp_Energy>
46.5215

> <b_lp_Chiralities_Consistent>
1

> <s_lp_Variant>
/home/yujie/leadopt/data/result/selection/CDK9/lig_14.sdf:1-1

> <s_i_glide_gridfile>
glide-grid_CDK9

> <i_i_glide_lignum>
12

> <i_i_glide_rotatable_bonds>
6

> <r_i_docking_score>
-9.56421746326456

> <r_i_glide_ligand_efficiency>
-0.289824771614078

> <r_i_glide_ligand_efficiency_sa>
-0.929622903551876

> <r_i_glide_ligand_efficiency_ln>
-2.12703244296231

> <r_i_glide_gscore>
-9.56651746326456

> <r_i_glide_lipo>
-3.01531529921082

> <r_i_glide_hbond>
-0.701353250476516

> <r_i_glide_metal>
0

> <r_i_glide_rewards>
-1.86948730113684

> <r_i_glide_evdw>
-42.7142333984375

> <r_i_glide_ecoul>
-13.0453186035156

> <r_i_glide_erotb>
0.281086068481141

> <r_i_glide_esite>
-0.168938220472301

> <r_i_glide_emodel>
-62.8258853168779

> <r_i_glide_energy>
-55.7595520019531

> <r_i_glide_einternal>
1.79145634174347

> <i_i_glide_confnum>
27

> <i_i_glide_posenum>
124

> <r_i_glide_eff_state_penalty>
0.0023

> <r_lp_tautomer_probability>
0.999998

> <s_m_job_name>
glide-dock_SP_all

> <r_glide_shape_similarity>
0.78060781955719

> <s_m_subgroup_title>
glide-dock_SP_all_lib1

> <s_m_subgroupid>
glide-dock_SP_all_lib1

> <b_m_subgroup_collapsed>
0

$$$$
