/home/yujie/leadopt/data/result/selection/CDK9/lig_17.sdf:1
                    3D
 Schrodinger Suite 2021-2.
 66 70  0  0  1  0            999 V2000
  -41.2071  -36.4544    0.0808 C   0  0  0  0  0  0
  -40.5236  -37.1741   -0.9491 O   0  0  0  0  0  0
  -40.1304  -36.4972   -2.0869 C   0  0  0  0  0  0
  -40.2910  -35.1116   -2.2021 C   0  0  0  0  0  0
  -40.0512  -34.4616   -3.4173 C   0  0  0  0  0  0
  -39.4299  -35.1441   -4.4806 C   0  0  0  0  0  0
  -39.1656  -36.5121   -4.3500 C   0  0  0  0  0  0
  -39.5599  -37.1996   -3.1820 C   0  0  0  0  0  0
  -39.3981  -38.6494   -3.1557 C   0  0  0  0  0  0
  -38.1193  -39.2402   -3.2275 C   0  0  0  0  0  0
  -38.0085  -40.6445   -3.1890 C   0  0  0  0  0  0
  -39.0584  -41.4959   -3.0939 N   0  0  0  0  0  0
  -40.2764  -40.8823   -3.0566 C   0  0  0  0  0  0
  -40.5362  -39.4851   -3.0912 C   0  0  0  0  0  0
  -41.9626  -39.2994   -3.0407 C   0  0  0  0  0  0
  -42.5270  -40.5433   -2.8988 C   0  0  0  0  0  0
  -41.5108  -41.4963   -2.9401 N   0  0  0  0  0  0
  -43.9696  -40.8700   -2.6148 C   0  0  1  0  0  0
  -44.7298  -41.7162   -3.6749 C   0  0  0  0  0  0
  -46.1871  -41.9891   -3.2471 C   0  0  0  0  0  0
  -46.2503  -42.6092   -1.8950 N   0  3  1  0  0  0
  -45.5762  -41.7650   -0.8677 C   0  0  0  0  0  0
  -44.1051  -41.5214   -1.2288 C   0  0  0  0  0  0
  -47.6468  -42.9566   -1.4927 C   0  0  0  0  0  0
  -48.1265  -44.3110   -2.0732 C   0  0  0  0  0  0
  -47.6280  -45.4053   -1.3138 O   0  0  0  0  0  0
  -40.4095  -33.0333   -3.5828 C   0  0  0  0  0  0
  -39.6417  -32.3662   -4.2545 O   0  0  0  0  0  0
  -41.5772  -32.5471   -3.0908 N   0  0  0  0  0  0
  -41.9869  -31.1617   -3.3650 C   0  0  0  0  0  0
  -43.2342  -30.9230   -2.5124 C   0  0  0  0  0  0
  -43.8154  -32.3318   -2.2774 C   0  0  0  0  0  0
  -42.5816  -33.2208   -2.2452 C   0  0  0  0  0  0
  -41.6525  -42.4943   -2.8072 H   0  0  0  0  0  0
  -41.5022  -37.1396    0.8738 H   0  0  0  0  0  0
  -40.5650  -35.7007    0.5392 H   0  0  0  0  0  0
  -42.1122  -35.9730   -0.2926 H   0  0  0  0  0  0
  -40.6484  -34.5441   -1.3679 H   0  0  0  0  0  0
  -39.1927  -34.6391   -5.4053 H   0  0  0  0  0  0
  -38.7233  -37.0503   -5.1762 H   0  0  0  0  0  0
  -37.2325  -38.6255   -3.2948 H   0  0  0  0  0  0
  -37.0307  -41.0957   -3.2244 H   0  0  0  0  0  0
  -42.4726  -38.3485   -3.0318 H   0  0  0  0  0  0
  -44.4993  -39.9174   -2.5583 H   0  0  0  0  0  0
  -44.8273  -41.1906   -4.6252 H   0  0  0  0  0  0
  -44.2020  -42.6525   -3.8625 H   0  0  0  0  0  0
  -46.7502  -41.0523   -3.2414 H   0  0  0  0  0  0
  -46.6684  -42.6378   -3.9819 H   0  0  0  0  0  0
  -46.1020  -40.8148   -0.7617 H   0  0  0  0  0  0
  -45.6276  -42.2696    0.0983 H   0  0  0  0  0  0
  -43.5612  -42.4672   -1.1987 H   0  0  0  0  0  0
  -43.6492  -40.8816   -0.4718 H   0  0  0  0  0  0
  -47.7364  -42.9949   -0.4058 H   0  0  0  0  0  0
  -48.3158  -42.1545   -1.8075 H   0  0  0  0  0  0
  -49.2157  -44.3551   -2.0165 H   0  0  0  0  0  0
  -47.8631  -44.4294   -3.1256 H   0  0  0  0  0  0
  -46.6899  -45.5182   -1.4553 H   0  0  0  0  0  0
  -42.2184  -31.0574   -4.4255 H   0  0  0  0  0  0
  -41.1978  -30.4505   -3.1116 H   0  0  0  0  0  0
  -43.9219  -30.2211   -2.9833 H   0  0  0  0  0  0
  -42.9377  -30.4928   -1.5552 H   0  0  0  0  0  0
  -44.4073  -32.4018   -1.3651 H   0  0  0  0  0  0
  -44.4244  -32.6893   -3.1101 H   0  0  0  0  0  0
  -42.2310  -33.2465   -1.2127 H   0  0  0  0  0  0
  -42.8131  -34.2342   -2.5752 H   0  0  0  0  0  0
  -45.7181  -43.4727   -1.9287 H   0  0  0  0  0  0
  1  2  1  0  0  0
  1 35  1  0  0  0
  1 36  1  0  0  0
  1 37  1  0  0  0
  2  3  1  0  0  0
  3  8  1  0  0  0
  3  4  2  0  0  0
  4  5  1  0  0  0
  4 38  1  0  0  0
  5  6  2  0  0  0
  5 27  1  0  0  0
  6  7  1  0  0  0
  6 39  1  0  0  0
  7  8  2  0  0  0
  7 40  1  0  0  0
  8  9  1  0  0  0
  9 14  1  0  0  0
  9 10  2  0  0  0
 10 11  1  0  0  0
 10 41  1  0  0  0
 11 12  2  0  0  0
 11 42  1  0  0  0
 12 13  1  0  0  0
 13 17  1  0  0  0
 13 14  2  0  0  0
 14 15  1  0  0  0
 15 16  2  0  0  0
 15 43  1  0  0  0
 16 17  1  0  0  0
 16 18  1  0  0  0
 17 34  1  0  0  0
 18 23  1  0  0  0
 18 19  1  0  0  0
 18 44  1  0  0  0
 19 20  1  0  0  0
 19 45  1  0  0  0
 19 46  1  0  0  0
 20 21  1  0  0  0
 20 47  1  0  0  0
 20 48  1  0  0  0
 21 22  1  0  0  0
 21 24  1  0  0  0
 21 66  1  0  0  0
 22 23  1  0  0  0
 22 49  1  0  0  0
 22 50  1  0  0  0
 23 51  1  0  0  0
 23 52  1  0  0  0
 24 25  1  0  0  0
 24 53  1  0  0  0
 24 54  1  0  0  0
 25 26  1  0  0  0
 25 55  1  0  0  0
 25 56  1  0  0  0
 26 57  1  0  0  0
 27 28  2  0  0  0
 27 29  1  0  0  0
 29 33  1  0  0  0
 29 30  1  0  0  0
 30 31  1  0  0  0
 30 58  1  0  0  0
 30 59  1  0  0  0
 31 32  1  0  0  0
 31 60  1  0  0  0
 31 61  1  0  0  0
 32 33  1  0  0  0
 32 62  1  0  0  0
 32 63  1  0  0  0
 33 64  1  0  0  0
 33 65  1  0  0  0
M  CHG  1  21   1
M  END
> <s_m_entry_id>
227

> <s_m_entry_name>
CDK9_lig_17.1

> <s_m_Source_Path>
C:\Users\yujiethinkpad\Desktop\selection\selection\CDK9_pose

> <s_m_Source_File>
CDK9_lig_17.sdf

> <i_m_Source_File_Index>
1

> <i_lp_mmshare_version>
51139

> <i_f3d_flags>
0

> <s_epik_input>
W0NIMl0xW0NIMl1bQ0gyXVtDSDJdTjFDKD1PKWMoW2NIXWMyT1tDSDNdKVtjSF1bY0hdYzItYyhbY0hdW2NIXW4zKWMoYzM0KVtjSF1jKFtuSF00KVtDSF01W0NIMl1bQ0gyXU4oW0NIMl1bQ0gyXTUpW0NIMl1bQ0gyXVtPSF0=

> <s_epik_cmdline>
J2VwaWtfcHl0aG9uJywgJy1waHQnLCAnMi4wJywgJy1waCcsICc3LjAnLCAnLXRuJywgJzgnLCAnLW1hJywgJzIwMCcsICctaW1hZScsICc8aW5maWxlLm1hZT4nLCAnLW9tYWUnLCAnPG91dGZpbGUubWFlPic=

> <r_epik_Ionization_Penalty>
  0.0101

> <r_epik_Ionization_Penalty_Charging>
  0.0079

> <r_epik_Ionization_Penalty_Neutral>
  0.0022

> <r_epik_State_Penalty>
  0.0059

> <r_epik_Charging_Adjusted_Penalty>
0.0138083

> <i_epik_Tot_Q>
1

> <i_epik_Tot_abs_Q>
1

> <s_lp_Force_Field>
OPLS3e

> <r_lp_Energy>
56.0178

> <b_lp_Chiralities_Consistent>
1

> <s_lp_Variant>
/home/yujie/leadopt/data/result/selection/CDK9/lig_17.sdf:1-1

> <s_i_glide_gridfile>
glide-grid_CDK9

> <i_i_glide_lignum>
15

> <i_i_glide_rotatable_bonds>
8

> <r_i_docking_score>
-10.476779506511

> <r_i_glide_ligand_efficiency>
-0.317478166863969

> <r_i_glide_ligand_efficiency_sa>
-1.01832211805347

> <r_i_glide_ligand_efficiency_ln>
-2.32998151638693

> <r_i_glide_gscore>
-10.482679506511

> <r_i_glide_lipo>
-3.09842722065272

> <r_i_glide_hbond>
-0.951202942314395

> <r_i_glide_metal>
0

> <r_i_glide_rewards>
-1.82039752229432

> <r_i_glide_evdw>
-34.3531303405762

> <r_i_glide_ecoul>
-20.9987163543701

> <r_i_glide_erotb>
0.416488898233365

> <r_i_glide_esite>
-0.161676749298572

> <r_i_glide_emodel>
-67.2333253683172

> <r_i_glide_energy>
-55.3518466949463

> <r_i_glide_einternal>
4.78889179229736

> <i_i_glide_confnum>
21

> <i_i_glide_posenum>
27

> <r_i_glide_eff_state_penalty>
0.0059

> <r_lp_tautomer_probability>
0.999998

> <s_m_job_name>
glide-dock_SP_all

> <r_glide_shape_similarity>
0.714533567428589

> <s_m_subgroup_title>
glide-dock_SP_all_lib1

> <s_m_subgroupid>
glide-dock_SP_all_lib1

> <b_m_subgroup_collapsed>
0

$$$$
