26
                    3D
 Schrodinger Suite 2021-2.
 43 46  0  0  1  0            999 V2000
    3.0900  -47.2504    6.7747 O   0  0  0  0  0  0
    3.0863  -48.4855    6.5974 C   0  0  0  0  0  0
    4.1511  -49.1309    6.6518 O   0  5  0  0  0  0
    1.7953  -49.1810    6.3522 C   0  0  0  0  0  0
    0.0202  -50.9573    6.3447 C   0  0  0  0  0  0
   -0.8407  -52.0632    6.4168 C   0  0  0  0  0  0
   -2.2170  -51.8957    6.1858 C   0  0  0  0  0  0
   -2.7295  -50.6268    5.8842 C   0  0  0  0  0  0
   -1.8581  -49.5384    5.7909 C   0  0  0  0  0  0
   -0.4683  -49.6764    6.0068 C   0  0  0  0  0  0
    0.5734  -48.7000    5.9545 C   0  0  0  0  0  0
    0.2448  -47.3095    5.6230 C   0  0  0  0  0  0
   -0.1713  -46.7848    6.9543 C   0  0  0  0  0  0
   -0.7090  -45.4534    6.9809 C   0  0  0  0  0  0
   -1.9563  -45.4326    6.3519 O   0  0  0  0  0  0
   -3.0626  -45.1684    7.0920 C   0  0  0  0  0  0
   -5.6579  -44.8869    8.0913 C   0  0  0  0  0  0
   -4.7420  -45.7252    8.7536 C   0  0  0  0  0  0
   -3.4344  -45.8754    8.2484 C   0  0  0  0  0  0
   -0.4530  -53.0400    6.6646 H   0  0  0  0  0  0
   -2.8843  -52.7439    6.2350 H   0  0  0  0  0  0
   -3.7907  -50.5002    5.7234 H   0  0  0  0  0  0
   -2.2546  -48.5561    5.5758 H   0  0  0  0  0  0
    1.1124  -46.8240    5.1767 H   0  0  0  0  0  0
   -0.5175  -47.2952    4.8440 H   0  0  0  0  0  0
   -0.7902  -47.5013    7.4838 H   0  0  0  0  0  0
    0.5960  -46.7275    7.6948 H   0  0  0  0  0  0
   -0.7625  -45.0668    7.9993 H   0  0  0  0  0  0
   -0.0069  -44.8413    6.4214 H   0  0  0  0  0  0
   -2.7298  -46.4865    8.7910 H   0  0  0  0  0  0
   -5.2664  -44.1936    6.9412 C   0  0  0  0  0  0
   -3.9523  -44.2831    6.4818 C   0  0  0  0  0  0
   -3.5624  -43.5738    5.3185 C   0  0  0  0  0  0
   -4.5207  -42.8487    4.5819 C   0  0  0  0  0  0
   -5.8712  -42.8378    5.0023 C   0  0  0  0  0  0
   -6.2238  -43.4520    6.2089 C   0  0  0  0  0  0
   -2.5576  -43.6587    4.9331 H   0  0  0  0  0  0
   -4.2293  -42.3490    3.6695 H   0  0  0  0  0  0
   -6.6187  -42.3572    4.3931 H   0  0  0  0  0  0
   -7.2398  -43.3796    6.5573 H   0  0  0  0  0  0
   -5.0559  -46.2802    9.6253 H   0  0  0  0  0  0
   -6.6859  -44.8504    8.4209 H   0  0  0  0  0  0
    1.7525  -50.8931    6.6326 O   0  0  0  0  0  0
  1  2  2  0  0  0
  2  3  1  0  0  0
  2  4  1  0  0  0
  4 11  2  0  0  0
  4 43  1  0  0  0
  5  6  1  0  0  0
  5 10  2  0  0  0
  5 43  1  0  0  0
  6  7  2  0  0  0
  6 20  1  0  0  0
  7  8  1  0  0  0
  7 21  1  0  0  0
  8  9  2  0  0  0
  8 22  1  0  0  0
  9 10  1  0  0  0
  9 23  1  0  0  0
 10 11  1  0  0  0
 11 12  1  0  0  0
 12 24  1  0  0  0
 12 25  1  0  0  0
 12 13  1  0  0  0
 13 14  1  0  0  0
 13 26  1  0  0  0
 13 27  1  0  0  0
 14 15  1  0  0  0
 14 28  1  0  0  0
 14 29  1  0  0  0
 15 16  1  0  0  0
 16 19  2  0  0  0
 16 32  1  0  0  0
 17 18  2  0  0  0
 17 31  1  0  0  0
 17 42  1  0  0  0
 18 19  1  0  0  0
 18 41  1  0  0  0
 19 30  1  0  0  0
 31 32  2  0  0  0
 31 36  1  0  0  0
 32 33  1  0  0  0
 33 34  2  0  0  0
 33 37  1  0  0  0
 34 35  1  0  0  0
 34 38  1  0  0  0
 35 36  2  0  0  0
 35 39  1  0  0  0
 36 40  1  0  0  0
M  CHG  1   3  -1
M  END
> <s_m_entry_id>
163

> <s_m_entry_name>
MCL1_26.1

> <r_m_Molecular_weight>
345.37839

> <s_m_Source_Path>
C:\Users\yujiethinkpad\Desktop\05A\MCL1\original

> <s_m_Source_File>
MCL1_26.sdf

> <r_user_dG.exp>
-8.23584030891924

> <s_fepmapper_entryid>
2

> <i_fepmapper_bias>
0

> <i_fepmapper_affinity>
1

> <r_fepmapper_exp_dG>
-8.23584030892

> <i_fepmapper_unit>
1

> <i_m_Source_File_Index>
1

> <s_m_job_name>
align_ligands_1

> <s_i_glide_gridfile>
glide-grid_MCL1

> <i_i_glide_lignum>
10

> <i_i_glide_rotatable_bonds>
6

> <r_i_docking_score>
-8.62547584409087

> <r_i_glide_ligand_efficiency>
-0.331749070926572

> <r_i_glide_ligand_efficiency_sa>
-0.982805317250409

> <r_i_glide_ligand_efficiency_ln>
-2.02566469949004

> <r_i_glide_gscore>
-8.62547584409087

> <r_i_glide_lipo>
-5.39391958168788

> <r_i_glide_hbond>
-0.27684050581673

> <r_i_glide_metal>
0

> <r_i_glide_rewards>
-1.95430922727273

> <r_i_glide_evdw>
-27.2090129852295

> <r_i_glide_ecoul>
-1.79893016815186

> <r_i_glide_erotb>
0.637125540834659

> <r_i_glide_esite>
-0.00724189566394409

> <r_i_glide_emodel>
-34.1718076722694

> <r_i_glide_energy>
-29.0079431533813

> <r_i_glide_einternal>
3.51264023780823

> <i_i_glide_confnum>
19

> <i_i_glide_posenum>
221

> <r_i_glide_eff_state_penalty>
0

> <r_glide_shape_similarity>
0.855827808380127

> <i_phase_Input_Structure_Number>
11

> <i_phase_Structure_Number>
11

> <r_phase_Similarity_to_Reference>
0.85934115908582

> <i_phase_Reference_Structure>
1

> <s_phase_Alignment_Method>
snapped core

> <s_phase_Alignment_Reason>


> <s_phase_Core_SMARTS>
a1aaaaa1AAAAa(aa2)a(a23)aaaa3

> <s_f3d_frozen_atoms>
19 18 17 31 32 16 15 14 13 12 11 4 43 10 5 9 8 7 6 30 41 42 28 29 26 27 24 25 23 22 21 20

> <s_m_subgroup_title>
align_ligands_1->glide-dock_SP_redock_4245_lib1

> <s_m_subgroupid>
align_ligands_1->glide-dock_SP_redock_4245_lib11

> <b_m_subgroup_collapsed>
0

$$$$
