31
                    3D
 Schrodinger Suite 2021-2.
 41 43  0  0  1  0            999 V2000
    3.0900  -47.2504    6.7747 O   0  0  0  0  0  0
    3.0863  -48.4855    6.5974 C   0  0  0  0  0  0
    4.1511  -49.1309    6.6518 O   0  5  0  0  0  0
    1.7953  -49.1810    6.3522 C   0  0  0  0  0  0
    0.0202  -50.9573    6.3447 C   0  0  0  0  0  0
   -0.8407  -52.0632    6.4168 C   0  0  0  0  0  0
   -2.2170  -51.8957    6.1858 C   0  0  0  0  0  0
   -2.7295  -50.6268    5.8842 C   0  0  0  0  0  0
   -1.8581  -49.5384    5.7909 C   0  0  0  0  0  0
   -0.4683  -49.6764    6.0068 C   0  0  0  0  0  0
    0.5734  -48.7000    5.9545 C   0  0  0  0  0  0
    0.2448  -47.3095    5.6230 C   0  0  0  0  0  0
   -0.1713  -46.7848    6.9543 C   0  0  0  0  0  0
   -0.7090  -45.4534    6.9809 C   0  0  0  0  0  0
   -1.9563  -45.4326    6.3519 O   0  0  0  0  0  0
   -3.0626  -45.1684    7.0920 C   0  0  0  0  0  0
   -3.4344  -45.8754    8.2484 C   0  0  0  0  0  0
   -4.7420  -45.7252    8.7536 C   0  0  0  0  0  0
   -5.6579  -44.8869    8.0913 C   0  0  0  0  0  0
   -5.2664  -44.1936    6.9412 C   0  0  0  0  0  0
   -3.9523  -44.2831    6.4818 C   0  0  0  0  0  0
   -0.4517  -53.0369    6.6742 H   0  0  0  0  0  0
   -2.8837  -52.7441    6.2438 H   0  0  0  0  0  0
   -3.7868  -50.4994    5.7003 H   0  0  0  0  0  0
   -2.2646  -48.5652    5.5722 H   0  0  0  0  0  0
   -0.5454  -47.3074    4.8719 H   0  0  0  0  0  0
    1.0901  -46.7982    5.1625 H   0  0  0  0  0  0
    0.5920  -46.9691    7.7107 H   0  0  0  0  0  0
   -1.0653  -47.3309    7.2639 H   0  0  0  0  0  0
   -0.0792  -44.7826    6.3984 H   0  0  0  0  0  0
   -0.8199  -44.9899    7.9520 H   0  0  0  0  0  0
   -2.7612  -46.5689    8.7266 H   0  0  0  0  0  0
   -3.6397  -43.7156    5.6171 H   0  0  0  0  0  0
    1.7525  -50.8931    6.6326 N   0  0  0  0  0  0
    2.5848  -51.3911    6.9332 H   0  0  0  0  0  0
   -5.9842  -43.5885    6.4068 H   0  0  0  0  0  0
   -6.6555  -44.7549    8.4845 H   0  0  0  0  0  0
   -6.4537  -46.6767   10.0918 F   0  0  0  0  0  0
   -5.1273  -46.4727   10.0458 C   0  0  0  0  0  0
   -4.7906  -45.7448   11.1191 F   0  0  0  0  0  0
   -4.4839  -47.6521   10.1405 F   0  0  0  0  0  0
  1  2  2  0  0  0
  2  3  1  0  0  0
  2  4  1  0  0  0
  4 11  2  0  0  0
  4 34  1  0  0  0
  5  6  1  0  0  0
  5 10  2  0  0  0
  5 34  1  0  0  0
  6  7  2  0  0  0
  6 22  1  0  0  0
  7  8  1  0  0  0
  7 23  1  0  0  0
  8  9  2  0  0  0
  8 24  1  0  0  0
  9 10  1  0  0  0
  9 25  1  0  0  0
 10 11  1  0  0  0
 11 12  1  0  0  0
 12 26  1  0  0  0
 12 27  1  0  0  0
 12 13  1  0  0  0
 13 14  1  0  0  0
 13 28  1  0  0  0
 13 29  1  0  0  0
 14 15  1  0  0  0
 14 30  1  0  0  0
 14 31  1  0  0  0
 15 16  1  0  0  0
 16 17  1  0  0  0
 16 21  2  0  0  0
 17 18  2  0  0  0
 17 32  1  0  0  0
 18 19  1  0  0  0
 18 39  1  0  0  0
 19 20  2  0  0  0
 19 37  1  0  0  0
 20 21  1  0  0  0
 20 36  1  0  0  0
 21 33  1  0  0  0
 34 35  1  0  0  0
 38 39  1  0  0  0
 39 40  1  0  0  0
 39 41  1  0  0  0
M  CHG  1   3  -1
M  END
> <s_m_entry_id>
167

> <s_m_entry_name>
MCL1_31.1

> <r_m_Molecular_weight>
362.3315

> <s_m_Source_Path>
C:\Users\yujiethinkpad\Desktop\05A\MCL1\original

> <s_m_Source_File>
MCL1_31.sdf

> <r_user_dG.exp>
-7.91951688961355

> <s_fepmapper_entryid>
7

> <i_fepmapper_bias>
0

> <i_fepmapper_affinity>
1

> <r_fepmapper_exp_dG>
-7.91951688961

> <i_fepmapper_unit>
1

> <i_m_Source_File_Index>
1

> <s_m_job_name>
align_ligands_1

> <s_i_glide_gridfile>
glide-grid_MCL1

> <i_i_glide_lignum>
15

> <i_i_glide_rotatable_bonds>
7

> <r_i_docking_score>
-8.41860075836724

> <r_i_glide_ligand_efficiency>
-0.323792336860279

> <r_i_glide_ligand_efficiency_sa>
-0.959233523887252

> <r_i_glide_ligand_efficiency_ln>
-1.97708076442037

> <r_i_glide_gscore>
-8.41860075836724

> <r_i_glide_lipo>
-4.47939037601423

> <r_i_glide_hbond>
-0.215989034446343

> <r_i_glide_metal>
0

> <r_i_glide_rewards>
-2.83814968087105

> <r_i_glide_evdw>
-27.7561206817627

> <r_i_glide_ecoul>
-1.45679426193237

> <r_i_glide_erotb>
0.731300272525245

> <r_i_glide_esite>
-0.0100467661828822

> <r_i_glide_emodel>
-36.3627950352391

> <r_i_glide_energy>
-29.2129149436951

> <r_i_glide_einternal>
1.66930329799652

> <i_i_glide_confnum>
47

> <i_i_glide_posenum>
165

> <r_i_glide_eff_state_penalty>
0

> <r_glide_shape_similarity>
0.873412907123566

> <i_phase_Input_Structure_Number>
15

> <i_phase_Structure_Number>
15

> <r_phase_Similarity_to_Reference>
0.884682481520806

> <i_phase_Reference_Structure>
1

> <s_phase_Alignment_Method>
snapped core

> <s_phase_Alignment_Reason>


> <s_phase_Core_SMARTS>
a1aaaaa1AAAAa(aa2)a(a23)aaaa3

> <s_f3d_frozen_atoms>
17 18 19 20 21 16 15 14 13 12 11 4 34 10 5 9 8 7 6 32 37 36 33 30 31 28 29 26 27 35 25 24 23 22

> <s_m_subgroup_title>
align_ligands_1->glide-dock_SP_redock_4245_lib1

> <s_m_subgroupid>
align_ligands_1->glide-dock_SP_redock_4245_lib11

> <b_m_subgroup_collapsed>
0

$$$$
