41
                    3D
 Schrodinger Suite 2021-2.
 49 52  0  0  1  0            999 V2000
    3.0900  -47.2504    6.7747 O   0  0  0  0  0  0
    3.0863  -48.4855    6.5974 C   0  0  0  0  0  0
    4.1511  -49.1309    6.6518 O   0  5  0  0  0  0
    1.7953  -49.1810    6.3522 C   0  0  0  0  0  0
    0.0202  -50.9573    6.3447 C   0  0  0  0  0  0
   -0.8407  -52.0632    6.4168 C   0  0  0  0  0  0
   -2.2170  -51.8957    6.1858 C   0  0  0  0  0  0
   -2.7295  -50.6268    5.8842 C   0  0  0  0  0  0
   -1.8581  -49.5384    5.7909 C   0  0  0  0  0  0
   -0.4683  -49.6764    6.0068 C   0  0  0  0  0  0
    0.5734  -48.7000    5.9545 C   0  0  0  0  0  0
    0.2448  -47.3095    5.6230 C   0  0  0  0  0  0
   -0.1713  -46.7848    6.9543 C   0  0  0  0  0  0
   -0.7090  -45.4534    6.9809 C   0  0  0  0  0  0
   -1.9563  -45.4326    6.3519 O   0  0  0  0  0  0
   -3.0626  -45.1684    7.0920 C   0  0  0  0  0  0
   -3.9523  -44.2831    6.4818 C   0  0  0  0  0  0
   -5.2664  -44.1936    6.9412 C   0  0  0  0  0  0
   -5.6579  -44.8869    8.0913 C   0  0  0  0  0  0
   -4.7420  -45.7252    8.7536 C   0  0  0  0  0  0
   -3.4344  -45.8754    8.2484 C   0  0  0  0  0  0
   -0.4542  -53.0313    6.6961 H   0  0  0  0  0  0
   -2.8919  -52.7370    6.2463 H   0  0  0  0  0  0
   -3.7892  -50.5396    5.7336 H   0  0  0  0  0  0
   -2.2465  -48.5561    5.5997 H   0  0  0  0  0  0
    1.1331  -46.8252    5.2180 H   0  0  0  0  0  0
   -0.4866  -47.2626    4.8168 H   0  0  0  0  0  0
   -0.9023  -47.4473    7.4192 H   0  0  0  0  0  0
    0.6923  -46.7761    7.6170 H   0  0  0  0  0  0
   -0.6843  -45.0315    7.9826 H   0  0  0  0  0  0
   -0.0869  -44.7978    6.3711 H   0  0  0  0  0  0
   -3.6367  -43.6281    5.6901 H   0  0  0  0  0  0
   -2.8176  -46.6573    8.6589 H   0  0  0  0  0  0
    1.7525  -50.8931    6.6326 N   0  0  0  0  0  0
    2.5953  -51.3905    6.9030 H   0  0  0  0  0  0
   -5.0037  -46.1182    9.7252 H   0  0  0  0  0  0
   -5.9615  -43.5678    6.4174 H   0  0  0  0  0  0
   -6.9331  -44.7246    8.5931 O   0  0  0  0  0  0
   -7.7677  -46.9301   12.0198 C   0  0  0  0  0  0
   -8.4011  -45.7116   11.8062 C   0  0  0  0  0  0
   -8.1223  -44.9747   10.6613 C   0  0  0  0  0  0
   -7.2100  -45.4563    9.7300 C   0  0  0  0  0  0
   -6.5765  -46.6748    9.9435 C   0  0  0  0  0  0
   -6.8554  -47.4117   11.0884 C   0  0  0  0  0  0
   -7.9848  -47.5039   12.9111 H   0  0  0  0  0  0
   -9.1114  -45.3367   12.5313 H   0  0  0  0  0  0
   -8.6154  -44.0260   10.4951 H   0  0  0  0  0  0
   -5.8663  -47.0497    9.2184 H   0  0  0  0  0  0
   -6.3622  -48.3604   11.2546 H   0  0  0  0  0  0
  1  2  2  0  0  0
  2  3  1  0  0  0
  2  4  1  0  0  0
  4 11  2  0  0  0
  4 34  1  0  0  0
  5  6  1  0  0  0
  5 10  2  0  0  0
  5 34  1  0  0  0
  6  7  2  0  0  0
  6 22  1  0  0  0
  7  8  1  0  0  0
  7 23  1  0  0  0
  8  9  2  0  0  0
  8 24  1  0  0  0
  9 10  1  0  0  0
  9 25  1  0  0  0
 10 11  1  0  0  0
 11 12  1  0  0  0
 12 26  1  0  0  0
 12 27  1  0  0  0
 12 13  1  0  0  0
 13 14  1  0  0  0
 13 28  1  0  0  0
 13 29  1  0  0  0
 14 15  1  0  0  0
 14 30  1  0  0  0
 14 31  1  0  0  0
 15 16  1  0  0  0
 16 17  1  0  0  0
 16 21  2  0  0  0
 17 18  2  0  0  0
 17 32  1  0  0  0
 18 19  1  0  0  0
 18 37  1  0  0  0
 19 20  2  0  0  0
 19 38  1  0  0  0
 20 21  1  0  0  0
 20 36  1  0  0  0
 21 33  1  0  0  0
 34 35  1  0  0  0
 38 42  1  0  0  0
 39 40  2  0  0  0
 39 44  1  0  0  0
 39 45  1  0  0  0
 40 41  1  0  0  0
 40 46  1  0  0  0
 41 42  2  0  0  0
 41 47  1  0  0  0
 42 43  1  0  0  0
 43 44  2  0  0  0
 43 48  1  0  0  0
 44 49  1  0  0  0
M  CHG  1   3  -1
M  END
> <s_m_entry_id>
193

> <s_m_entry_name>
MCL1_41.1

> <r_m_Molecular_weight>
386.4313

> <s_m_Source_Path>
C:\Users\yujiethinkpad\Desktop\05A\MCL1\original

> <s_m_Source_File>
MCL1_41.sdf

> <r_user_dG.exp>
-7.12924538792258

> <s_fepmapper_entryid>
28

> <i_fepmapper_bias>
0

> <i_fepmapper_affinity>
1

> <r_fepmapper_exp_dG>
-7.12924538792

> <i_fepmapper_unit>
1

> <i_m_Source_File_Index>
1

> <s_m_job_name>
align_ligands_1

> <s_i_glide_gridfile>
glide-grid_MCL1

> <i_i_glide_lignum>
25

> <i_i_glide_rotatable_bonds>
8

> <r_i_docking_score>
-7.01063202193107

> <r_i_glide_ligand_efficiency>
-0.241745931790726

> <r_i_glide_ligand_efficiency_sa>
-0.742720092948099

> <r_i_glide_ligand_efficiency_ln>
-1.60525695873292

> <r_i_glide_gscore>
-7.01063202193107

> <r_i_glide_lipo>
-5.27612985643513

> <r_i_glide_hbond>
0

> <r_i_glide_metal>
0

> <r_i_glide_rewards>
-1.25646778894304

> <r_i_glide_evdw>
-31.0935668945313

> <r_i_glide_ecoul>
1.09484732151031

> <r_i_glide_erotb>
0.912416869947118

> <r_i_glide_esite>
0

> <r_i_glide_emodel>
-19.2074490090337

> <r_i_glide_energy>
-29.9987195730209

> <r_i_glide_einternal>
3.88596510887146

> <i_i_glide_confnum>
41

> <i_i_glide_posenum>
192

> <r_i_glide_eff_state_penalty>
0

> <r_glide_shape_similarity>
0.679853975772858

> <i_phase_Input_Structure_Number>
41

> <i_phase_Structure_Number>
41

> <r_phase_Similarity_to_Reference>
0.761386942110948

> <i_phase_Reference_Structure>
1

> <s_phase_Alignment_Method>
snapped core

> <s_phase_Alignment_Reason>


> <s_phase_Core_SMARTS>
a1aaaaa1AAAAa(aa2)a(a23)aaaa3

> <s_f3d_frozen_atoms>
21 20 19 18 17 16 15 14 13 12 11 4 34 10 5 9 8 7 6 33 36 37 32 30 31 28 29 26 27 35 25 24 23 22

> <s_m_subgroup_title>
align_ligands_1->glide-dock_SP_redock_4245_lib1

> <s_m_subgroupid>
align_ligands_1->glide-dock_SP_redock_4245_lib11

> <b_m_subgroup_collapsed>
0

$$$$
