46
                    3D
 Schrodinger Suite 2021-2.
 45 48  0  0  1  0            999 V2000
    3.0900  -47.2504    6.7747 O   0  0  0  0  0  0
    3.0863  -48.4855    6.5974 C   0  0  0  0  0  0
    4.1511  -49.1309    6.6518 O   0  5  0  0  0  0
    1.7953  -49.1810    6.3522 C   0  0  0  0  0  0
    0.0202  -50.9573    6.3447 C   0  0  0  0  0  0
   -0.8407  -52.0632    6.4168 C   0  0  0  0  0  0
   -2.2170  -51.8957    6.1858 C   0  0  0  0  0  0
   -2.7295  -50.6268    5.8842 C   0  0  0  0  0  0
   -1.8581  -49.5384    5.7909 C   0  0  0  0  0  0
   -0.4683  -49.6764    6.0068 C   0  0  0  0  0  0
    0.5734  -48.7000    5.9545 C   0  0  0  0  0  0
    0.2448  -47.3095    5.6230 C   0  0  0  0  0  0
   -0.1713  -46.7848    6.9543 C   0  0  0  0  0  0
   -0.7090  -45.4534    6.9809 C   0  0  0  0  0  0
   -1.9563  -45.4326    6.3519 O   0  0  0  0  0  0
   -3.0626  -45.1684    7.0920 C   0  0  0  0  0  0
   -4.7420  -45.7252    8.7536 C   0  0  0  0  0  0
   -3.4344  -45.8754    8.2484 C   0  0  0  0  0  0
   -0.4485  -53.0346    6.6621 H   0  0  0  0  0  0
   -2.8783  -52.7410    6.2458 H   0  0  0  0  0  0
   -3.7807  -50.5101    5.6919 H   0  0  0  0  0  0
   -2.2617  -48.5583    5.5712 H   0  0  0  0  0  0
    1.1190  -46.8163    5.1973 H   0  0  0  0  0  0
   -0.5003  -47.2721    4.8272 H   0  0  0  0  0  0
   -0.9249  -47.4199    7.4138 H   0  0  0  0  0  0
    0.6839  -46.7895    7.6368 H   0  0  0  0  0  0
   -0.8678  -45.1593    8.0068 H   0  0  0  0  0  0
   -0.0163  -44.7596    6.5039 H   0  0  0  0  0  0
   -2.7141  -46.5033    8.7458 H   0  0  0  0  0  0
   -3.9523  -44.2831    6.4818 C   0  0  0  0  0  0
   -5.0520  -46.2365    9.6439 H   0  0  0  0  0  0
   -3.6590  -43.6277    5.6775 H   0  0  0  0  0  0
    1.7525  -50.8931    6.6326 N   0  0  0  0  0  0
   -7.6281  -43.9299    7.0025 C   0  0  0  0  0  0
   -6.3609  -43.3994    6.2803 C   0  0  0  0  0  0
   -5.2664  -44.1936    6.9412 C   0  0  0  0  0  0
   -5.6579  -44.8869    8.0913 C   0  0  0  0  0  0
   -7.1034  -44.6036    8.4383 C   0  0  0  0  0  0
   -7.6513  -45.4959    8.7250 H   0  0  0  0  0  0
   -7.1563  -43.8833    9.2552 H   0  0  0  0  0  0
   -8.0094  -44.7305    6.3733 H   0  0  0  0  0  0
   -8.4346  -43.2086    7.0544 H   0  0  0  0  0  0
   -6.2073  -42.3393    6.4664 H   0  0  0  0  0  0
   -6.3935  -43.5900    5.2115 H   0  0  0  0  0  0
    2.5982  -51.4018    6.8743 H   0  0  0  0  0  0
  1  2  2  0  0  0
  2  3  1  0  0  0
  2  4  1  0  0  0
  4 11  2  0  0  0
  4 33  1  0  0  0
  5  6  1  0  0  0
  5 10  2  0  0  0
  5 33  1  0  0  0
  6  7  2  0  0  0
  6 19  1  0  0  0
  7  8  1  0  0  0
  7 20  1  0  0  0
  8  9  2  0  0  0
  8 21  1  0  0  0
  9 10  1  0  0  0
  9 22  1  0  0  0
 10 11  1  0  0  0
 11 12  1  0  0  0
 12 23  1  0  0  0
 12 24  1  0  0  0
 12 13  1  0  0  0
 13 14  1  0  0  0
 13 25  1  0  0  0
 13 26  1  0  0  0
 14 15  1  0  0  0
 14 27  1  0  0  0
 14 28  1  0  0  0
 15 16  1  0  0  0
 16 18  2  0  0  0
 16 30  1  0  0  0
 17 18  1  0  0  0
 17 31  1  0  0  0
 17 37  2  0  0  0
 18 29  1  0  0  0
 30 32  1  0  0  0
 30 36  2  0  0  0
 33 45  1  0  0  0
 34 35  1  0  0  0
 34 38  1  0  0  0
 34 41  1  0  0  0
 34 42  1  0  0  0
 35 36  1  0  0  0
 35 43  1  0  0  0
 35 44  1  0  0  0
 36 37  1  0  0  0
 37 38  1  0  0  0
 38 39  1  0  0  0
 38 40  1  0  0  0
M  CHG  1   3  -1
M  END
> <s_m_entry_id>
168

> <s_m_entry_name>
MCL1_46.1

> <r_m_Molecular_weight>
334.39845

> <s_m_Source_Path>
C:\Users\yujiethinkpad\Desktop\05A\MCL1\original

> <s_m_Source_File>
MCL1_46.sdf

> <r_user_dG.exp>
-7.60113429727595

> <s_fepmapper_entryid>
5

> <i_fepmapper_bias>
0

> <i_fepmapper_affinity>
1

> <r_fepmapper_exp_dG>
-7.60113429728

> <i_fepmapper_unit>
1

> <i_m_Source_File_Index>
1

> <s_m_job_name>
align_ligands_1

> <s_i_glide_gridfile>
glide-grid_MCL1

> <i_i_glide_lignum>
30

> <i_i_glide_rotatable_bonds>
6

> <r_i_docking_score>
-8.37707563515917

> <r_i_glide_ligand_efficiency>
-0.335083025406367

> <r_i_glide_ligand_efficiency_sa>
-0.979788709010977

> <r_i_glide_ligand_efficiency_ln>
-1.98561796623177

> <r_i_glide_gscore>
-8.37707563515917

> <r_i_glide_lipo>
-4.92771534702221

> <r_i_glide_hbond>
-0.2

> <r_i_glide_metal>
0

> <r_i_glide_rewards>
-1.95329493341825

> <r_i_glide_evdw>
-29.9639320373535

> <r_i_glide_ecoul>
-3.02868103981018

> <r_i_glide_erotb>
0.674678162084637

> <r_i_glide_esite>
-0.0182447589641397

> <r_i_glide_emodel>
-45.7137403022964

> <r_i_glide_energy>
-32.9926130771637

> <r_i_glide_einternal>
3.85437679290771

> <i_i_glide_confnum>
43

> <i_i_glide_posenum>
221

> <r_i_glide_eff_state_penalty>
0

> <r_glide_shape_similarity>
0.91578733921051

> <i_phase_Input_Structure_Number>
16

> <i_phase_Structure_Number>
16

> <r_phase_Similarity_to_Reference>
0.894553993486455

> <i_phase_Reference_Structure>
1

> <s_phase_Alignment_Method>
snapped core

> <s_phase_Alignment_Reason>


> <s_phase_Core_SMARTS>
a1aaaaa1AAAAa(aa2)a(a23)aaaa3

> <s_f3d_frozen_atoms>
18 17 37 36 30 16 15 14 13 12 11 4 33 10 5 9 8 7 6 29 31 32 27 28 25 26 23 24 45 22 21 20 19

> <s_m_subgroup_title>
align_ligands_1->glide-dock_SP_redock_4245_lib1

> <s_m_subgroupid>
align_ligands_1->glide-dock_SP_redock_4245_lib11

> <b_m_subgroup_collapsed>
0

$$$$
