51
                    3D
 Schrodinger Suite 2021-2.
 44 47  0  0  1  0            999 V2000
    3.0900  -47.2504    6.7747 O   0  0  0  0  0  0
    3.0863  -48.4855    6.5974 C   0  0  0  0  0  0
    4.1511  -49.1309    6.6518 O   0  5  0  0  0  0
    1.7953  -49.1810    6.3522 C   0  0  0  0  0  0
    0.0202  -50.9573    6.3447 C   0  0  0  0  0  0
   -0.8407  -52.0632    6.4168 C   0  0  0  0  0  0
   -2.2170  -51.8957    6.1858 C   0  0  0  0  0  0
   -2.7295  -50.6268    5.8842 C   0  0  0  0  0  0
   -1.8581  -49.5384    5.7909 C   0  0  0  0  0  0
   -0.4683  -49.6764    6.0068 C   0  0  0  0  0  0
    0.5734  -48.7000    5.9545 C   0  0  0  0  0  0
    0.2448  -47.3095    5.6230 C   0  0  0  0  0  0
   -0.1713  -46.7848    6.9543 C   0  0  0  0  0  0
   -0.7090  -45.4534    6.9809 C   0  0  0  0  0  0
   -1.9563  -45.4326    6.3519 O   0  0  0  0  0  0
   -3.0626  -45.1684    7.0920 C   0  0  0  0  0  0
   -5.6579  -44.8869    8.0913 C   0  0  0  0  0  0
   -4.7420  -45.7252    8.7536 C   0  0  0  0  0  0
   -3.4344  -45.8754    8.2484 C   0  0  0  0  0  0
   -0.4423  -53.0309    6.6747 H   0  0  0  0  0  0
   -2.8929  -52.7317    6.2744 H   0  0  0  0  0  0
   -3.7930  -50.4927    5.7339 H   0  0  0  0  0  0
   -2.6037  -48.0186    5.5311 Cl  0  0  0  0  0  0
    1.1360  -46.8286    5.2177 H   0  0  0  0  0  0
   -0.4797  -47.2516    4.8103 H   0  0  0  0  0  0
   -0.8663  -47.4667    7.4415 H   0  0  0  0  0  0
    0.7344  -46.8378    7.5059 H   0  0  0  0  0  0
   -0.7950  -45.1476    8.0209 H   0  0  0  0  0  0
   -0.0023  -44.7926    6.4762 H   0  0  0  0  0  0
   -2.7522  -46.5337    8.7628 H   0  0  0  0  0  0
   -5.2664  -44.1936    6.9412 C   0  0  0  0  0  0
   -3.9523  -44.2831    6.4818 C   0  0  0  0  0  0
   -3.5130  -43.4534    5.4028 C   0  0  0  0  0  0
   -4.4557  -42.7058    4.6669 C   0  0  0  0  0  0
   -5.8210  -42.7245    5.0350 C   0  0  0  0  0  0
   -6.2421  -43.5055    6.1759 C   0  0  0  0  0  0
   -2.4849  -43.4993    5.0710 H   0  0  0  0  0  0
   -4.1343  -42.1519    3.7986 H   0  0  0  0  0  0
   -6.5267  -42.0996    4.5065 H   0  0  0  0  0  0
   -7.2915  -43.6302    6.3858 H   0  0  0  0  0  0
   -5.0448  -46.2767    9.6247 H   0  0  0  0  0  0
   -6.6925  -44.8528    8.4005 H   0  0  0  0  0  0
    1.7525  -50.8931    6.6326 N   0  0  0  0  0  0
    2.5920  -51.3902    6.9083 H   0  0  0  0  0  0
  1  2  2  0  0  0
  2  3  1  0  0  0
  2  4  1  0  0  0
  4 11  2  0  0  0
  4 43  1  0  0  0
  5  6  1  0  0  0
  5 10  2  0  0  0
  5 43  1  0  0  0
  6  7  2  0  0  0
  6 20  1  0  0  0
  7  8  1  0  0  0
  7 21  1  0  0  0
  8  9  2  0  0  0
  8 22  1  0  0  0
  9 10  1  0  0  0
  9 23  1  0  0  0
 10 11  1  0  0  0
 11 12  1  0  0  0
 12 24  1  0  0  0
 12 25  1  0  0  0
 12 13  1  0  0  0
 13 14  1  0  0  0
 13 26  1  0  0  0
 13 27  1  0  0  0
 14 15  1  0  0  0
 14 28  1  0  0  0
 14 29  1  0  0  0
 15 16  1  0  0  0
 16 19  2  0  0  0
 16 32  1  0  0  0
 17 18  2  0  0  0
 17 31  1  0  0  0
 17 42  1  0  0  0
 18 19  1  0  0  0
 18 41  1  0  0  0
 19 30  1  0  0  0
 31 32  2  0  0  0
 31 36  1  0  0  0
 32 33  1  0  0  0
 33 34  2  0  0  0
 33 37  1  0  0  0
 34 35  1  0  0  0
 34 38  1  0  0  0
 35 36  2  0  0  0
 35 39  1  0  0  0
 36 40  1  0  0  0
 43 44  1  0  0  0
M  CHG  1   3  -1
M  END
> <s_m_entry_id>
160

> <s_m_entry_name>
MCL1_51.1

> <r_m_Molecular_weight>
378.83869

> <s_m_Source_Path>
C:\Users\yujiethinkpad\Desktop\05A\MCL1\original

> <s_m_Source_File>
MCL1_51.sdf

> <r_user_dG.exp>
-8.44846494324944

> <s_fepmapper_entryid>
12

> <i_fepmapper_bias>
0

> <i_fepmapper_affinity>
1

> <r_fepmapper_exp_dG>
-8.44846494325

> <i_fepmapper_unit>
1

> <i_m_Source_File_Index>
1

> <s_m_job_name>
align_ligands_1

> <s_i_glide_gridfile>
glide-grid_MCL1

> <i_i_glide_lignum>
35

> <i_i_glide_rotatable_bonds>
6

> <r_i_docking_score>
-8.80748986655669

> <r_i_glide_ligand_efficiency>
-0.326203328390989

> <r_i_glide_ligand_efficiency_sa>
-0.978609984097853

> <r_i_glide_ligand_efficiency_ln>
-2.05023843811573

> <r_i_glide_gscore>
-8.80748986655669

> <r_i_glide_lipo>
-5.48580192308429

> <r_i_glide_hbond>
-0.223946215862014

> <r_i_glide_metal>
0

> <r_i_glide_rewards>
-1.72617286363636

> <r_i_glide_evdw>
-31.4223289489746

> <r_i_glide_ecoul>
-2.10052466392517

> <r_i_glide_erotb>
0.540262106106263

> <r_i_glide_esite>
-0.0256358230427767

> <r_i_glide_emodel>
-42.6563783879633

> <r_i_glide_energy>
-33.5228536128998

> <r_i_glide_einternal>
4.97737789154053

> <i_i_glide_confnum>
73

> <i_i_glide_posenum>
10

> <r_i_glide_eff_state_penalty>
0

> <r_glide_shape_similarity>
0.850112497806549

> <i_phase_Input_Structure_Number>
8

> <i_phase_Structure_Number>
8

> <r_phase_Similarity_to_Reference>
0.84061158398084

> <i_phase_Reference_Structure>
1

> <s_phase_Alignment_Method>
snapped core

> <s_phase_Alignment_Reason>


> <s_phase_Core_SMARTS>
a1aaaaa1AAAAa(aa2)a(a23)aaaa3

> <s_f3d_frozen_atoms>
19 18 17 31 32 16 15 14 13 12 11 4 43 10 5 9 8 7 6 30 41 42 28 29 26 27 24 25 44 23 22 21 20

> <s_m_subgroup_title>
align_ligands_1->glide-dock_SP_redock_4245_lib1

> <s_m_subgroupid>
align_ligands_1->glide-dock_SP_redock_4245_lib11

> <b_m_subgroup_collapsed>
0

$$$$
