52
                    3D
 Schrodinger Suite 2021-2.
 41 43  0  0  1  0            999 V2000
    3.0900  -47.2504    6.7747 O   0  0  0  0  0  0
    3.0863  -48.4855    6.5974 C   0  0  0  0  0  0
    4.1511  -49.1309    6.6518 O   0  5  0  0  0  0
    1.7953  -49.1810    6.3522 C   0  0  0  0  0  0
    0.0202  -50.9573    6.3447 C   0  0  0  0  0  0
   -0.8407  -52.0632    6.4168 C   0  0  0  0  0  0
   -2.2170  -51.8957    6.1858 C   0  0  0  0  0  0
   -2.7295  -50.6268    5.8842 C   0  0  0  0  0  0
   -1.8581  -49.5384    5.7909 C   0  0  0  0  0  0
   -0.4683  -49.6764    6.0068 C   0  0  0  0  0  0
    0.5734  -48.7000    5.9545 C   0  0  0  0  0  0
    0.2448  -47.3095    5.6230 C   0  0  0  0  0  0
   -0.1713  -46.7848    6.9543 C   0  0  0  0  0  0
   -0.7090  -45.4534    6.9809 C   0  0  0  0  0  0
   -1.9563  -45.4326    6.3519 O   0  0  0  0  0  0
   -3.0626  -45.1684    7.0920 C   0  0  0  0  0  0
   -3.9523  -44.2831    6.4818 C   0  0  0  0  0  0
   -5.2664  -44.1936    6.9412 C   0  0  0  0  0  0
   -6.2552  -43.4525    6.0702 C   0  0  0  0  0  0
   -5.6579  -44.8869    8.0913 C   0  0  0  0  0  0
   -7.2744  -44.6961    8.6464 Cl  0  0  0  0  0  0
   -4.7420  -45.7252    8.7536 C   0  0  0  0  0  0
   -3.4344  -45.8754    8.2484 C   0  0  0  0  0  0
   -0.4887  -53.0089    6.7988 H   0  0  0  0  0  0
   -3.2984  -53.2073    6.4816 Cl  0  0  0  0  0  0
   -3.7934  -50.4555    5.8277 H   0  0  0  0  0  0
   -2.2531  -48.5429    5.6362 H   0  0  0  0  0  0
   -0.4993  -47.2653    4.8320 H   0  0  0  0  0  0
    1.1304  -46.8245    5.2085 H   0  0  0  0  0  0
    0.6677  -46.8282    7.6436 H   0  0  0  0  0  0
   -0.9393  -47.4260    7.3875 H   0  0  0  0  0  0
   -0.0115  -44.7735    6.4977 H   0  0  0  0  0  0
   -0.8904  -45.1182    7.9993 H   0  0  0  0  0  0
   -3.6085  -43.6807    5.6562 H   0  0  0  0  0  0
   -5.9628  -43.5320    5.0223 H   0  0  0  0  0  0
   -6.3131  -42.3938    6.2986 H   0  0  0  0  0  0
   -7.2584  -43.8734    6.1342 H   0  0  0  0  0  0
   -2.7686  -46.5852    8.7188 H   0  0  0  0  0  0
   -5.0613  -46.2611    9.6345 H   0  0  0  0  0  0
    1.7525  -50.8931    6.6326 N   0  0  0  0  0  0
    2.5797  -51.3860    6.9371 H   0  0  0  0  0  0
  1  2  2  0  0  0
  2  3  1  0  0  0
  2  4  1  0  0  0
  4 11  2  0  0  0
  4 40  1  0  0  0
  5  6  1  0  0  0
  5 10  2  0  0  0
  5 40  1  0  0  0
  6  7  2  0  0  0
  6 24  1  0  0  0
  7  8  1  0  0  0
  7 25  1  0  0  0
  8  9  2  0  0  0
  8 26  1  0  0  0
  9 10  1  0  0  0
  9 27  1  0  0  0
 10 11  1  0  0  0
 11 12  1  0  0  0
 12 28  1  0  0  0
 12 29  1  0  0  0
 12 13  1  0  0  0
 13 14  1  0  0  0
 13 30  1  0  0  0
 13 31  1  0  0  0
 14 15  1  0  0  0
 14 32  1  0  0  0
 14 33  1  0  0  0
 15 16  1  0  0  0
 16 17  1  0  0  0
 16 23  2  0  0  0
 17 18  2  0  0  0
 17 34  1  0  0  0
 18 19  1  0  0  0
 18 20  1  0  0  0
 19 35  1  0  0  0
 19 36  1  0  0  0
 19 37  1  0  0  0
 20 21  1  0  0  0
 20 22  2  0  0  0
 22 23  1  0  0  0
 22 39  1  0  0  0
 23 38  1  0  0  0
 40 41  1  0  0  0
M  CHG  1   3  -1
M  END
> <s_m_entry_id>
184

> <s_m_entry_name>
MCL1_52.1

> <r_m_Molecular_weight>
377.25027

> <s_m_Source_Path>
C:\Users\yujiethinkpad\Desktop\05A\MCL1\original

> <s_m_Source_File>
MCL1_52.sdf

> <r_user_dG.exp>
-9.22585200324184

> <s_fepmapper_entryid>
8

> <i_fepmapper_bias>
0

> <i_fepmapper_affinity>
1

> <r_fepmapper_exp_dG>
-9.22585200324

> <i_fepmapper_unit>
1

> <i_m_Source_File_Index>
1

> <s_m_job_name>
align_ligands_1

> <s_i_glide_gridfile>
glide-grid_MCL1

> <i_i_glide_lignum>
36

> <i_i_glide_rotatable_bonds>
6

> <r_i_docking_score>
-7.60077494112878

> <r_i_glide_ligand_efficiency>
-0.304030997645151

> <r_i_glide_ligand_efficiency_sa>
-0.888992029127124

> <r_i_glide_ligand_efficiency_ln>
-1.80161143789204

> <r_i_glide_gscore>
-7.60077494112878

> <r_i_glide_lipo>
-4.68245188397888

> <r_i_glide_hbond>
-0.2

> <r_i_glide_metal>
0

> <r_i_glide_rewards>
-1.59206181685017

> <r_i_glide_evdw>
-28.0201892852783

> <r_i_glide_ecoul>
-2.59117746353149

> <r_i_glide_erotb>
0.680424897087132

> <r_i_glide_esite>
-0.0170000535932265

> <r_i_glide_emodel>
-40.6580436145512

> <r_i_glide_energy>
-30.6113667488098

> <r_i_glide_einternal>
4.98865652084351

> <i_i_glide_confnum>
276

> <i_i_glide_posenum>
127

> <r_i_glide_eff_state_penalty>
0

> <r_glide_shape_similarity>
0.919417142868042

> <i_phase_Input_Structure_Number>
32

> <i_phase_Structure_Number>
32

> <r_phase_Similarity_to_Reference>
0.922445489255583

> <i_phase_Reference_Structure>
1

> <s_phase_Alignment_Method>
snapped core

> <s_phase_Alignment_Reason>


> <s_phase_Core_SMARTS>
a1aaaaa1AAAAa(aa2)a(a23)aaaa3

> <s_f3d_frozen_atoms>
23 22 20 18 17 16 15 14 13 12 11 4 40 10 5 9 8 7 6 38 39 21 34 32 33 30 31 28 29 41 27 26 25 24

> <s_m_subgroup_title>
align_ligands_1->glide-dock_SP_redock_4245_lib1

> <s_m_subgroupid>
align_ligands_1->glide-dock_SP_redock_4245_lib11

> <b_m_subgroup_collapsed>
0

$$$$
