ejm_54
                    3D
 Schrodinger Suite 2021-2.
 37 38  0  0  1  0            999 V2000
   -1.7434   20.9519  -27.9088 C   0  0  0  0  0  0
   -1.1503   21.8429  -28.8267 C   0  0  0  0  0  0
   -1.8531   22.9275  -29.3701 C   0  0  0  0  0  0
   -3.2114   23.0883  -29.0671 C   0  0  0  0  0  0
   -3.7921   22.2097  -28.1218 C   0  0  0  0  0  0
   -3.0781   21.1495  -27.5404 C   0  0  0  0  0  0
   -5.3330   22.5263  -27.5093 Cl  0  0  0  0  0  0
   -4.0013   24.2228  -29.6493 C   0  0  0  0  0  0
   -4.0661   25.3554  -29.1806 O   0  0  0  0  0  0
   -4.6434   23.8610  -30.7605 N   0  0  0  0  0  0
   -5.4967   24.7285  -31.5672 C   0  0  0  0  0  0
   -6.1210   24.2408  -32.7151 C   0  0  0  0  0  0
   -6.9312   25.0875  -33.4697 C   0  0  0  0  0  0
   -7.1387   26.3838  -33.1266 N   0  0  0  0  0  0
   -6.5247   26.8460  -32.0063 C   0  0  0  0  0  0
   -5.7013   26.0578  -31.2035 C   0  0  0  0  0  0
   -6.7626   28.2435  -31.6571 N   0  0  0  0  0  0
   -5.9976   28.9805  -30.8585 C   0  0  0  0  0  0
   -4.9837   28.5590  -30.3139 O   0  0  0  0  0  0
   -1.0066   24.0992  -30.3082 Cl  0  0  0  0  0  0
   -1.1680   20.1327  -27.5020 H   0  0  0  0  0  0
   -0.1238   21.7000  -29.1314 H   0  0  0  0  0  0
   -3.5423   20.4919  -26.8197 H   0  0  0  0  0  0
   -4.6180   22.9426  -31.1799 H   0  0  0  0  0  0
   -5.9783   23.2127  -33.0190 H   0  0  0  0  0  0
   -7.4240   24.7258  -34.3643 H   0  0  0  0  0  0
   -5.2332   26.4697  -30.3199 H   0  0  0  0  0  0
   -7.6008   28.5592  -32.1194 H   0  0  0  0  0  0
   -5.8212   31.2608  -29.8992 C   0  0  0  0  0  0
   -6.4069   32.1776  -29.9665 H   0  0  0  0  0  0
   -5.7784   30.9324  -28.8607 H   0  0  0  0  0  0
   -4.4308   31.5178  -30.4000 C   0  0  0  0  0  0
   -6.4473   30.2225  -30.7126 N   0  0  0  0  0  0
   -7.2756   30.5997  -31.1455 H   0  0  0  0  0  0
   -3.9634   32.2929  -29.7927 H   0  0  0  0  0  0
   -3.8451   30.6010  -30.3327 H   0  0  0  0  0  0
   -4.4736   31.8462  -31.4385 H   0  0  0  0  0  0
  1  2  1  0  0  0
  1  6  2  0  0  0
  1 21  1  0  0  0
  2  3  2  0  0  0
  2 22  1  0  0  0
  3  4  1  0  0  0
  3 20  1  0  0  0
  4  5  2  0  0  0
  4  8  1  0  0  0
  5  6  1  0  0  0
  5  7  1  0  0  0
  6 23  1  0  0  0
  8  9  2  0  0  0
  8 10  1  0  0  0
 10 11  1  0  0  0
 10 24  1  0  0  0
 11 12  1  0  0  0
 11 16  2  0  0  0
 12 13  2  0  0  0
 12 25  1  0  0  0
 13 14  1  0  0  0
 13 26  1  0  0  0
 14 15  2  0  0  0
 15 16  1  0  0  0
 15 17  1  0  0  0
 16 27  1  0  0  0
 17 18  1  0  0  0
 17 28  1  0  0  0
 18 19  2  0  0  0
 18 33  1  0  0  0
 29 30  1  0  0  0
 29 31  1  0  0  0
 29 32  1  0  0  0
 29 33  1  0  0  0
 32 35  1  0  0  0
 32 36  1  0  0  0
 32 37  1  0  0  0
 33 34  1  0  0  0
M  END
> <s_m_entry_id>
768

> <s_m_entry_name>
Tyk2_ejm_54.1

> <r_user_dG.exp>
-10.53

> <r_m_Molecular_weight>
353.21043

> <s_m_Source_Path>
C:\Users\yujiethinkpad\Desktop\05A\Tyk2

> <s_m_Source_File>
Tyk2_ejm_54.sdf

> <i_m_Source_File_Index>
1

> <s_m_job_name>
align_ligands_0662

> <i_phase_Input_Structure_Number>
3

> <i_phase_Structure_Number>
3

> <r_phase_Similarity_to_Reference>
0.86618035419937

> <i_phase_Reference_Structure>
16

> <s_phase_Alignment_Method>
snapped core

> <s_phase_Alignment_Reason>


> <s_phase_Core_SMARTS>
a1aaaaa1

> <s_f3d_frozen_atoms>
4 3 2 1 6 5 20 22 21 23 7

> <s_fepmapper_entryid>
17

> <i_fepmapper_bias>
0

> <i_fepmapper_affinity>
1

> <r_fepmapper_exp_dG>
-10.53

> <i_fepmapper_unit>
1

> <s_m_subgroup_title>
align_ligands_0662

> <s_m_subgroupid>
align_ligands_0662

> <b_m_subgroup_collapsed>
0

$$$$
