ejm_47
                    3D
 Schrodinger Suite 2021-2.
 39 41  0  0  1  0            999 V2000
   -1.7434   20.9519  -27.9088 C   0  0  0  0  0  0
   -3.0781   21.1495  -27.5404 C   0  0  0  0  0  0
   -3.7921   22.2097  -28.1218 C   0  0  0  0  0  0
   -3.2114   23.0883  -29.0671 C   0  0  0  0  0  0
   -1.8531   22.9275  -29.3701 C   0  0  0  0  0  0
   -1.1503   21.8429  -28.8267 C   0  0  0  0  0  0
   -1.0066   24.0992  -30.3082 Cl  0  0  0  0  0  0
   -4.0034   24.2172  -29.6574 C   0  0  0  0  0  0
   -4.1348   25.3294  -29.1550 O   0  0  0  0  0  0
   -4.5650   23.8755  -30.8174 N   0  0  0  0  0  0
   -5.3976   24.7439  -31.6446 C   0  0  0  0  0  0
   -6.2613   24.2019  -32.5962 C   0  0  0  0  0  0
   -7.0466   25.0505  -33.3745 C   0  0  0  0  0  0
   -7.0029   26.4001  -33.2407 N   0  0  0  0  0  0
   -6.1574   26.9148  -32.3101 C   0  0  0  0  0  0
   -5.3429   26.1281  -31.4968 C   0  0  0  0  0  0
   -6.1275   28.3691  -32.1841 N   0  0  0  0  0  0
   -5.1417   29.0785  -31.6339 C   0  0  0  0  0  0
   -4.1311   28.5634  -31.1646 O   0  0  0  0  0  0
   -5.3330   22.5263  -27.5093 Cl  0  0  0  0  0  0
   -1.1841   20.1269  -27.4914 H   0  0  0  0  0  0
   -3.5422   20.4919  -26.8197 H   0  0  0  0  0  0
   -0.1237   21.7000  -29.1314 H   0  0  0  0  0  0
   -4.4832   22.9741  -31.2656 H   0  0  0  0  0  0
   -6.3224   23.1305  -32.7304 H   0  0  0  0  0  0
   -7.7231   24.6471  -34.1185 H   0  0  0  0  0  0
   -4.6849   26.5830  -30.7690 H   0  0  0  0  0  0
   -6.9741   28.7510  -32.5810 H   0  0  0  0  0  0
   -5.4286   30.5504  -31.6660 C   0  0  0  0  0  0
   -6.5540   31.0284  -30.7383 C   0  0  0  0  0  0
   -5.6940   32.2641  -30.4400 C   0  0  0  0  0  0
   -4.4720   31.4317  -30.8514 C   0  0  0  0  0  0
   -7.5129   31.2253  -31.2212 H   0  0  0  0  0  0
   -6.7211   30.3830  -29.8723 H   0  0  0  0  0  0
   -5.8945   33.1147  -31.0964 H   0  0  0  0  0  0
   -5.7045   32.6083  -29.4042 H   0  0  0  0  0  0
   -3.7114   31.9618  -31.4276 H   0  0  0  0  0  0
   -3.9871   30.9126  -30.0208 H   0  0  0  0  0  0
   -5.5459   30.8643  -32.7062 H   0  0  0  0  0  0
  1  2  1  0  0  0
  1  6  2  0  0  0
  1 21  1  0  0  0
  2  3  2  0  0  0
  2 22  1  0  0  0
  3  4  1  0  0  0
  3 20  1  0  0  0
  4  5  2  0  0  0
  4  8  1  0  0  0
  5  6  1  0  0  0
  5  7  1  0  0  0
  6 23  1  0  0  0
  8  9  2  0  0  0
  8 10  1  0  0  0
 10 11  1  0  0  0
 10 24  1  0  0  0
 11 12  1  0  0  0
 11 16  2  0  0  0
 12 13  2  0  0  0
 12 25  1  0  0  0
 13 14  1  0  0  0
 13 26  1  0  0  0
 14 15  2  0  0  0
 15 16  1  0  0  0
 15 17  1  0  0  0
 16 27  1  0  0  0
 17 18  1  0  0  0
 17 28  1  0  0  0
 18 19  2  0  0  0
 18 29  1  0  0  0
 29 30  1  0  0  0
 29 32  1  0  0  0
 29 39  1  0  0  0
 30 31  1  0  0  0
 30 33  1  0  0  0
 30 34  1  0  0  0
 31 32  1  0  0  0
 31 35  1  0  0  0
 31 36  1  0  0  0
 32 37  1  0  0  0
 32 38  1  0  0  0
M  END
> <s_m_entry_id>
778

> <s_m_entry_name>
Tyk2_ejm_47.1

> <r_user_dG.exp>
-9.7

> <r_m_Molecular_weight>
364.234

> <s_m_Source_Path>
C:\Users\yujiethinkpad\Desktop\05A\Tyk2

> <s_m_Source_File>
Tyk2_ejm_47.sdf

> <i_m_Source_File_Index>
1

> <s_m_job_name>
align_ligands_0662

> <i_phase_Input_Structure_Number>
13

> <i_phase_Structure_Number>
13

> <r_phase_Similarity_to_Reference>
0.873834386733881

> <i_phase_Reference_Structure>
16

> <s_phase_Alignment_Method>
snapped core

> <s_phase_Alignment_Reason>


> <s_phase_Core_SMARTS>
a1aaaaa1

> <s_f3d_frozen_atoms>
4 5 6 1 2 3 7 23 21 22 20

> <s_fepmapper_entryid>
14

> <i_fepmapper_bias>
0

> <i_fepmapper_affinity>
1

> <r_fepmapper_exp_dG>
-9.7

> <i_fepmapper_unit>
1

> <s_m_subgroup_title>
align_ligands_0662

> <s_m_subgroupid>
align_ligands_0662

> <b_m_subgroup_collapsed>
0

$$$$
