ejm_48
                    3D
 Schrodinger Suite 2021-2.
 42 44  0  0  1  0            999 V2000
   -1.7434   20.9519  -27.9088 C   0  0  0  0  0  0
   -3.0781   21.1495  -27.5404 C   0  0  0  0  0  0
   -3.7921   22.2097  -28.1218 C   0  0  0  0  0  0
   -3.2114   23.0883  -29.0671 C   0  0  0  0  0  0
   -1.8531   22.9275  -29.3701 C   0  0  0  0  0  0
   -1.1503   21.8429  -28.8267 C   0  0  0  0  0  0
   -1.0066   24.0992  -30.3082 Cl  0  0  0  0  0  0
   -4.0034   24.2172  -29.6574 C   0  0  0  0  0  0
   -4.1348   25.3294  -29.1550 O   0  0  0  0  0  0
   -4.5650   23.8755  -30.8174 N   0  0  0  0  0  0
   -5.3976   24.7439  -31.6446 C   0  0  0  0  0  0
   -5.9350   24.2782  -32.8444 C   0  0  0  0  0  0
   -6.7270   25.1253  -33.6177 C   0  0  0  0  0  0
   -6.9988   26.4011  -33.2438 N   0  0  0  0  0  0
   -6.4692   26.8419  -32.0729 C   0  0  0  0  0  0
   -5.6689   26.0518  -31.2488 C   0  0  0  0  0  0
   -6.7752   28.2175  -31.6913 N   0  0  0  0  0  0
   -6.0827   28.9516  -30.8199 C   0  0  0  0  0  0
   -5.0892   28.5307  -30.2346 O   0  0  0  0  0  0
   -5.3330   22.5263  -27.5093 Cl  0  0  0  0  0  0
   -1.1841   20.1269  -27.4914 H   0  0  0  0  0  0
   -3.5422   20.4919  -26.8197 H   0  0  0  0  0  0
   -0.1237   21.7000  -29.1314 H   0  0  0  0  0  0
   -4.4832   22.9741  -31.2656 H   0  0  0  0  0  0
   -5.7393   23.2670  -33.1740 H   0  0  0  0  0  0
   -7.1527   24.7806  -34.5525 H   0  0  0  0  0  0
   -5.2689   26.4463  -30.3246 H   0  0  0  0  0  0
   -7.5962   28.5233  -32.1939 H   0  0  0  0  0  0
   -7.6901   30.2016  -30.2961 H   0  0  0  0  0  0
   -6.6674   30.3234  -30.6575 C   0  0  0  0  0  0
   -5.7994   31.1515  -29.7120 C   0  0  0  0  0  0
   -4.6275   31.5981  -30.5894 C   0  0  0  0  0  0
   -5.2017   31.7387  -32.0089 C   0  0  0  0  0  0
   -6.5937   31.0858  -31.9826 C   0  0  0  0  0  0
   -5.4790   30.5917  -28.8316 H   0  0  0  0  0  0
   -6.3571   32.0222  -29.3603 H   0  0  0  0  0  0
   -4.1676   32.5200  -30.2289 H   0  0  0  0  0  0
   -3.8515   30.8296  -30.5815 H   0  0  0  0  0  0
   -5.2765   32.7873  -32.3035 H   0  0  0  0  0  0
   -4.5494   31.2506  -32.7356 H   0  0  0  0  0  0
   -6.7706   30.4385  -32.8435 H   0  0  0  0  0  0
   -7.3633   31.8605  -32.0017 H   0  0  0  0  0  0
  1  2  1  0  0  0
  1  6  2  0  0  0
  1 21  1  0  0  0
  2  3  2  0  0  0
  2 22  1  0  0  0
  3  4  1  0  0  0
  3 20  1  0  0  0
  4  5  2  0  0  0
  4  8  1  0  0  0
  5  6  1  0  0  0
  5  7  1  0  0  0
  6 23  1  0  0  0
  8  9  2  0  0  0
  8 10  1  0  0  0
 10 11  1  0  0  0
 10 24  1  0  0  0
 11 12  1  0  0  0
 11 16  2  0  0  0
 12 13  2  0  0  0
 12 25  1  0  0  0
 13 14  1  0  0  0
 13 26  1  0  0  0
 14 15  2  0  0  0
 15 16  1  0  0  0
 15 17  1  0  0  0
 16 27  1  0  0  0
 17 18  1  0  0  0
 17 28  1  0  0  0
 18 19  2  0  0  0
 18 30  1  0  0  0
 29 30  1  0  0  0
 30 31  1  0  0  0
 30 34  1  0  0  0
 31 32  1  0  0  0
 31 35  1  0  0  0
 31 36  1  0  0  0
 32 33  1  0  0  0
 32 37  1  0  0  0
 32 38  1  0  0  0
 33 34  1  0  0  0
 33 39  1  0  0  0
 33 40  1  0  0  0
 34 41  1  0  0  0
 34 42  1  0  0  0
M  END
> <s_m_entry_id>
779

> <s_m_entry_name>
Tyk2_ejm_48.1

> <r_user_dG.exp>
-9

> <r_m_Molecular_weight>
378.26109

> <s_m_Source_Path>
C:\Users\yujiethinkpad\Desktop\05A\Tyk2

> <s_m_Source_File>
Tyk2_ejm_48.sdf

> <i_m_Source_File_Index>
1

> <s_m_job_name>
align_ligands_0662

> <i_phase_Input_Structure_Number>
14

> <i_phase_Structure_Number>
14

> <r_phase_Similarity_to_Reference>
0.830209683147599

> <i_phase_Reference_Structure>
16

> <s_phase_Alignment_Method>
snapped core

> <s_phase_Alignment_Reason>


> <s_phase_Core_SMARTS>
a1aaaaa1

> <s_f3d_frozen_atoms>
4 5 6 1 2 3 7 23 21 22 20

> <s_fepmapper_entryid>
13

> <i_fepmapper_bias>
0

> <i_fepmapper_affinity>
1

> <r_fepmapper_exp_dG>
-9

> <i_fepmapper_unit>
1

> <s_m_subgroup_title>
align_ligands_0662

> <s_m_subgroupid>
align_ligands_0662

> <b_m_subgroup_collapsed>
0

$$$$
