18628-1
                    3D
 Schrodinger Suite 2021-2.
 41 42  0  0  1  0            999 V2000
   24.4161   10.9591   30.4185 C   0  0  0  0  0  0
   22.9865   11.3676   30.0918 C   0  0  0  0  0  0
   22.2053   11.4294   31.2697 O   0  0  0  0  0  0
   21.4787   10.3287   31.6705 C   0  0  0  0  0  0
   21.8135    9.1166   31.1890 N   0  0  0  0  0  0
   21.0372    8.0521   31.4553 C   0  0  0  0  0  0
   19.8840    8.1652   32.2448 C   0  0  0  0  0  0
   19.5613    9.4111   32.7751 C   0  0  0  0  0  0
   18.4113    9.5106   33.5250 N   0  0  0  0  0  0
   20.3592   10.5210   32.4822 C   0  0  0  0  0  0
   20.0113   11.8465   32.9252 C   0  0  0  0  0  0
   19.7315   12.9030   33.2697 N   0  0  0  0  0  0
   21.4389    6.8381   30.8846 N   0  0  0  0  0  0
   20.9856    5.5908   31.0190 C   0  0  0  0  0  0
   20.0121    5.2503   31.6699 O   0  0  0  0  0  0
   21.7367    4.5482   30.2183 C   0  0  0  0  0  0
   23.1010    4.2712   30.8146 C   0  0  0  0  0  0
   24.2301    5.0864   30.5588 C   0  0  0  0  0  0
   24.1937    6.3318   29.6974 C   0  0  0  0  0  0
   25.4702    4.7328   31.1168 C   0  0  0  0  0  0
   25.6041    3.5935   31.9265 C   0  0  0  0  0  0
   24.4875    2.7842   32.1822 C   0  0  0  0  0  0
   23.2493    3.1226   31.6168 C   0  0  0  0  0  0
   25.0391   10.9719   29.5245 H   0  0  0  0  0  0
   24.4593    9.9545   30.8396 H   0  0  0  0  0  0
   24.8556   11.6432   31.1447 H   0  0  0  0  0  0
   22.9945   12.3671   29.6573 H   0  0  0  0  0  0
   22.5476   10.7188   29.3324 H   0  0  0  0  0  0
   19.2421    7.3265   32.4613 H   0  0  0  0  0  0
   17.9900   10.4194   33.6707 H   0  0  0  0  0  0
   17.7558    8.7427   33.5172 H   0  0  0  0  0  0
   22.2529    6.9195   30.3013 H   0  0  0  0  0  0
   21.1563    3.6249   30.1979 H   0  0  0  0  0  0
   21.8138    4.8575   29.1783 H   0  0  0  0  0  0
   25.1331    6.4342   29.1527 H   0  0  0  0  0  0
   23.4061    6.3178   28.9466 H   0  0  0  0  0  0
   24.0839    7.2208   30.3192 H   0  0  0  0  0  0
   26.3408    5.3430   30.9239 H   0  0  0  0  0  0
   26.5657    3.3377   32.3461 H   0  0  0  0  0  0
   24.5843    1.8945   32.7870 H   0  0  0  0  0  0
   22.4112    2.4599   31.7698 H   0  0  0  0  0  0
  1  2  1  0  0  0
  1 24  1  0  0  0
  1 25  1  0  0  0
  1 26  1  0  0  0
  2  3  1  0  0  0
  2 27  1  0  0  0
  2 28  1  0  0  0
  3  4  1  0  0  0
  4 10  1  0  0  0
  4  5  2  0  0  0
  5  6  1  0  0  0
  6  7  2  0  0  0
  6 13  1  0  0  0
  7  8  1  0  0  0
  7 29  1  0  0  0
  8  9  1  0  0  0
  8 10  2  0  0  0
  9 30  1  0  0  0
  9 31  1  0  0  0
 10 11  1  0  0  0
 11 12  3  0  0  0
 13 14  1  0  0  0
 13 32  1  0  0  0
 14 15  2  0  0  0
 14 16  1  0  0  0
 16 17  1  0  0  0
 16 33  1  0  0  0
 16 34  1  0  0  0
 17 23  1  0  0  0
 17 18  2  0  0  0
 18 19  1  0  0  0
 18 20  1  0  0  0
 19 35  1  0  0  0
 19 36  1  0  0  0
 19 37  1  0  0  0
 20 21  2  0  0  0
 20 38  1  0  0  0
 21 22  1  0  0  0
 21 39  1  0  0  0
 22 23  2  0  0  0
 22 40  1  0  0  0
 23 41  1  0  0  0
M  END
> <i_m_stars>
0

> <s_m_entry_id>
3015

> <s_m_entry_name>
Jnk1_18628-1.1

> <s_m_Source_Path>
C:\Users\yujiethinkpad\Desktop\05A\JNK1

> <s_m_Source_File>
Jnk1_18628-1.sdf

> <i_m_Source_File_Index>
1

> <s_i_glide_gridfile>
glide-grid_JNK1

> <r_i_docking_score>
-7.58216991123551

> <r_i_glide_ecoul>
-6.42767333984375

> <r_i_glide_einternal>
7.65082836151123

> <r_i_glide_emodel>
-43.1963055026657

> <r_i_glide_energy>
-38.8894691467285

> <r_i_glide_erotb>
0.961897661652081

> <r_i_glide_esite>
0

> <r_i_glide_evdw>
-32.4617958068848

> <r_i_glide_gscore>
-7.58216991123551

> <r_i_glide_hbond>
-0.327098240951407

> <r_i_glide_ligand_efficiency>
-0.329659561358066

> <r_i_glide_ligand_efficiency_ln>
-1.83343743585239

> <r_i_glide_ligand_efficiency_sa>
-0.937507940158704

> <r_i_glide_lipo>
-3.45141116451235

> <r_i_glide_metal>
0

> <r_i_glide_rewards>
-2.17831737610304

> <i_i_glide_confnum>
6

> <i_i_glide_lignum>
19

> <i_i_glide_posenum>
350

> <i_i_glide_rotatable_bonds>
6

> <r_i_glide_eff_state_penalty>
0

> <s_m_job_name>
glide-dock_SP_other_0000

> <r_user_dG.exp>
-8.702592

> <r_m_Molecular_weight>
310.35861

> <r_glide_shape_similarity>
0.869560778141022

> <s_m_subgroup_title>
glide-dock_SP_other_0000_lib1

> <s_m_subgroupid>
glide-dock_SP_other_0000_lib1

> <b_m_subgroup_collapsed>
0

$$$$
