18634-1
                    3D
 Schrodinger Suite 2021-2.
 46 47  0  0  1  0            999 V2000
   24.4503   10.9156   30.3060 C   0  0  0  0  0  0
   23.0131   11.3504   30.0570 C   0  0  0  0  0  0
   22.2903   11.3609   31.2709 O   0  0  0  0  0  0
   21.5645   10.2491   31.6422 C   0  0  0  0  0  0
   21.9258    9.0380   31.1544 N   0  0  0  0  0  0
   21.1598    7.9550   31.4003 C   0  0  0  0  0  0
   19.9682    8.0868   32.1304 C   0  0  0  0  0  0
   19.6114    9.3301   32.6442 C   0  0  0  0  0  0
   18.4096    9.4360   33.3043 N   0  0  0  0  0  0
   20.4263   10.4373   32.4241 C   0  0  0  0  0  0
   20.0725   11.7563   32.8902 C   0  0  0  0  0  0
   19.7830   12.8038   33.2697 N   0  0  0  0  0  0
   21.5985    6.6984   30.8927 N   0  0  0  0  0  0
   21.1446    5.4501   31.1141 C   0  0  0  0  0  0
   20.0878    5.1979   31.6706 O   0  0  0  0  0  0
   21.9426    4.2679   30.5308 C   0  0  0  0  0  0
   23.4075    4.2257   30.9457 C   0  0  0  0  0  0
   23.9689    3.2007   31.7460 C   0  0  0  0  0  0
   23.1983    2.1419   32.1176 O   0  0  0  0  0  0
   23.7078    1.2380   33.0825 C   0  0  0  0  0  0
   25.3389    3.2392   32.0805 C   0  0  0  0  0  0
   26.1633    4.2281   31.5595 C   0  0  0  0  0  0
   25.6234    5.1994   30.7007 C   0  0  0  0  0  0
   24.2560    5.2055   30.4212 C   0  0  0  0  0  0
   26.3730    6.1547   30.0574 O   0  0  0  0  0  0
   27.7826    6.0004   30.0741 C   0  0  0  0  0  0
   25.0457   10.9982   29.3975 H   0  0  0  0  0  0
   24.5043    9.8815   30.6602 H   0  0  0  0  0  0
   24.9267   11.5492   31.0574 H   0  0  0  0  0  0
   23.0219   12.3690   29.6593 H   0  0  0  0  0  0
   22.5334   10.7377   29.2913 H   0  0  0  0  0  0
   19.3071    7.2596   32.3089 H   0  0  0  0  0  0
   18.0303   10.3390   33.5685 H   0  0  0  0  0  0
   17.7900    8.6511   33.4051 H   0  0  0  0  0  0
   22.4600    6.7485   30.3777 H   0  0  0  0  0  0
   21.4411    3.3469   30.8204 H   0  0  0  0  0  0
   21.8892    4.3038   29.4466 H   0  0  0  0  0  0
   22.9156    0.5328   33.3453 H   0  0  0  0  0  0
   24.5414    0.6568   32.6904 H   0  0  0  0  0  0
   24.0189    1.7443   33.9963 H   0  0  0  0  0  0
   25.8138    2.4868   32.6863 H   0  0  0  0  0  0
   27.2150    4.2061   31.7988 H   0  0  0  0  0  0
   23.8683    5.9539   29.7443 H   0  0  0  0  0  0
   28.2395    6.7976   29.4925 H   0  0  0  0  0  0
   28.1933    6.0716   31.0828 H   0  0  0  0  0  0
   28.0710    5.0485   29.6230 H   0  0  0  0  0  0
  1  2  1  0  0  0
  1 27  1  0  0  0
  1 28  1  0  0  0
  1 29  1  0  0  0
  2  3  1  0  0  0
  2 30  1  0  0  0
  2 31  1  0  0  0
  3  4  1  0  0  0
  4 10  1  0  0  0
  4  5  2  0  0  0
  5  6  1  0  0  0
  6  7  2  0  0  0
  6 13  1  0  0  0
  7  8  1  0  0  0
  7 32  1  0  0  0
  8  9  1  0  0  0
  8 10  2  0  0  0
  9 33  1  0  0  0
  9 34  1  0  0  0
 10 11  1  0  0  0
 11 12  3  0  0  0
 13 14  1  0  0  0
 13 35  1  0  0  0
 14 15  2  0  0  0
 14 16  1  0  0  0
 16 17  1  0  0  0
 16 36  1  0  0  0
 16 37  1  0  0  0
 17 24  1  0  0  0
 17 18  2  0  0  0
 18 19  1  0  0  0
 18 21  1  0  0  0
 19 20  1  0  0  0
 20 38  1  0  0  0
 20 39  1  0  0  0
 20 40  1  0  0  0
 21 22  2  0  0  0
 21 41  1  0  0  0
 22 23  1  0  0  0
 22 42  1  0  0  0
 23 24  2  0  0  0
 23 25  1  0  0  0
 24 43  1  0  0  0
 25 26  1  0  0  0
 26 44  1  0  0  0
 26 45  1  0  0  0
 26 46  1  0  0  0
M  END
> <i_m_stars>
0

> <s_m_entry_id>
3022

> <s_m_entry_name>
Jnk1_18634-1.1

> <s_m_Source_Path>
C:\Users\yujiethinkpad\Desktop\05A\JNK1

> <s_m_Source_File>
Jnk1_18634-1.sdf

> <i_m_Source_File_Index>
1

> <s_i_glide_gridfile>
glide-grid_JNK1

> <r_i_docking_score>
-7.412229822648

> <r_i_glide_ecoul>
-5.7497444152832

> <r_i_glide_einternal>
6.36489629745483

> <r_i_glide_emodel>
-45.1164238550687

> <r_i_glide_energy>
-42.8944244384766

> <r_i_glide_erotb>
0.753191267593457

> <r_i_glide_esite>
0

> <r_i_glide_evdw>
-37.1446800231934

> <r_i_glide_gscore>
-7.412229822648

> <r_i_glide_hbond>
-0.319692748863356

> <r_i_glide_ligand_efficiency>
-0.285085762409539

> <r_i_glide_ligand_efficiency_ln>
-1.74073785233908

> <r_i_glide_ligand_efficiency_sa>
-0.844565449379951

> <r_i_glide_lipo>
-3.25621346491008

> <r_i_glide_metal>
0

> <r_i_glide_rewards>
-1.86981921301587

> <i_i_glide_confnum>
18

> <i_i_glide_lignum>
5

> <i_i_glide_posenum>
183

> <i_i_glide_rotatable_bonds>
8

> <r_i_glide_eff_state_penalty>
0

> <s_m_job_name>
glide-dock_SP_other_0000

> <r_user_dG.exp>
-9.993231

> <r_m_Molecular_weight>
356.3845

> <r_glide_shape_similarity>
0.858281135559082

> <s_m_subgroup_title>
glide-dock_SP_other_0000_lib1

> <s_m_subgroupid>
glide-dock_SP_other_0000_lib1

> <b_m_subgroup_collapsed>
0

$$$$
