@<TRIPOS>MOLECULE
/home/yujie/leadopt/data/result/selection/PSK13/lig_12.sdf:1
44   47    1
SMALL
USER_CHARGES


@<TRIPOS>ATOM
      1 C1          5.8737   25.3831    4.8998 C.3       1 UNK         0.0000 
      2 C2          5.6798   26.1813    6.1829 C.2       1 UNK         0.0000 
      3 O3          6.3944   27.1607    6.3823 O.2       1 UNK         0.0000 
      4 C4          4.5587   25.8327    7.0492 C.2       1 UNK         0.0000 
      5 C5          4.2058   24.5438    7.4865 C.2       1 UNK         0.0000 
      6 O6          3.0975   24.5935    8.2757 O.3       1 UNK         0.0000 
      7 C7          2.7322   25.8963    8.3743 C.ar      1 UNK         0.0000 
      8 C8          1.6364   26.3512    9.1043 C.ar      1 UNK         0.0000 
      9 C9          1.4077   27.7223    9.0934 C.ar      1 UNK         0.0000 
     10 C10         2.2315   28.5942    8.3868 C.ar      1 UNK         0.0000 
     11 C11         3.3360   28.1410    7.6414 C.ar      1 UNK         0.0000 
     12 C12         3.5989   26.7432    7.6407 C.ar      1 UNK         0.0000 
     13 C13         4.1785   29.1721    6.8888 C.3       1 UNK         0.0000 
     14 N14         5.4337   29.6029    7.6716 N.4       1 UNK         0.0000 
     15 C15         5.2520   30.3904    8.9764 C.3       1 UNK         0.0000 
     16 C16         6.3855   31.3321    8.5488 C.3       1 UNK         0.0000 
     17 C17         6.2584   30.7708    7.1256 C.3       1 UNK         0.0000 
     18 O18         1.9418   29.9281    8.4412 O.3       1 UNK         0.0000 
     19 C19         4.7792   23.1680    7.3244 C.ar      1 UNK         0.0000 
     20 C20         3.9876   22.0224    7.4951 C.ar      1 UNK         0.0000 
     21 C21         4.5729   20.7636    7.3362 C.ar      1 UNK         0.0000 
     22 C22         5.9268   20.6756    7.0065 C.ar      1 UNK         0.0000 
     23 C23         6.6513   21.8571    6.8463 C.ar      1 UNK         0.0000 
     24 N24         6.1005   23.0869    7.0106 N.ar      1 UNK         0.0000 
     25 O25         6.5301   19.4578    6.8449 O.3       1 UNK         0.0000 
     26 H26         5.1048   24.6202    4.7864 H         1 UNK         0.0000 
     27 H27         5.8274   26.0504    4.0393 H         1 UNK         0.0000 
     28 H28         6.8506   24.9000    4.9043 H         1 UNK         0.0000 
     29 H29         0.9969   25.6667    9.6390 H         1 UNK         0.0000 
     30 H30         0.5701   28.1211    9.6412 H         1 UNK         0.0000 
     31 H31         4.5335   28.8000    5.9284 H         1 UNK         0.0000 
     32 H32         3.6346   30.0946    6.6821 H         1 UNK         0.0000 
     33 H33         4.2608   30.8495    9.0045 H         1 UNK         0.0000 
     34 H34         5.4627   29.7427    9.8290 H         1 UNK         0.0000 
     35 H35         7.3411   31.1148    9.0286 H         1 UNK         0.0000 
     36 H36         6.1677   32.3955    8.6520 H         1 UNK         0.0000 
     37 H37         7.1778   30.3857    6.6815 H         1 UNK         0.0000 
     38 H38         5.6467   31.3674    6.4438 H         1 UNK         0.0000 
     39 H39         1.4017   30.2216    9.2049 H         1 UNK         0.0000 
     40 H40         2.9379   22.1025    7.7385 H         1 UNK         0.0000 
     41 H41         3.9785   19.8722    7.4670 H         1 UNK         0.0000 
     42 H42         7.7014   21.8219    6.5933 H         1 UNK         0.0000 
     43 H43         5.8855   18.7407    6.8420 H         1 UNK         0.0000 
     44 H44         6.0204   28.7870    7.8197 H         1 UNK         0.0000 
@<TRIPOS>BOND
     1    1    2 1    
     2    1   26 1    
     3    1   27 1    
     4    1   28 1    
     5    2    3 2    
     6    2    4 1    
     7    4   12 1    
     8    4    5 2    
     9    5    6 1    
    10    5   19 1    
    11    6    7 1    
    12    7   12 ar   
    13    7    8 ar   
    14    8    9 ar   
    15    8   29 1    
    16    9   10 ar   
    17    9   30 1    
    18   10   11 ar   
    19   10   18 1    
    20   11   12 ar   
    21   11   13 1    
    22   13   14 1    
    23   13   31 1    
    24   13   32 1    
    25   14   17 1    
    26   14   15 1    
    27   14   44 1    
    28   15   16 1    
    29   15   33 1    
    30   15   34 1    
    31   16   17 1    
    32   16   35 1    
    33   16   36 1    
    34   17   37 1    
    35   17   38 1    
    36   18   39 1    
    37   19   24 ar   
    38   19   20 ar   
    39   20   21 ar   
    40   20   40 1    
    41   21   22 ar   
    42   21   41 1    
    43   22   23 ar   
    44   22   25 1    
    45   23   24 ar   
    46   23   42 1    
    47   25   43 1    
@<TRIPOS>SUBSTRUCTURE
     1 UNK         1 GROUP             0       ****    0 ROOT    
