@<TRIPOS>MOLECULE
/home/yujie/leadopt/data/result/selection/PSK13/lig_28.sdf:1
54   58    1
SMALL
USER_CHARGES


@<TRIPOS>ATOM
      1 C1          6.7760   25.5861    4.0398 C.3       1 UNK         0.0000 
      2 N2          5.7351   25.4245    5.0456 N.am      1 UNK         0.0000 
      3 C3          5.6444   26.1471    6.1707 C.2       1 UNK         0.0000 
      4 O4          6.4026   27.0663    6.4778 O.2       1 UNK         0.0000 
      5 C5          4.5574   25.7539    7.0161 C.2       1 UNK         0.0000 
      6 C6          4.3159   24.4365    7.4595 C.2       1 UNK         0.0000 
      7 O7          3.2185   24.3814    8.2619 O.3       1 UNK         0.0000 
      8 C8          2.7481   25.6452    8.3764 C.ar      1 UNK         0.0000 
      9 C9          1.6269   26.0071    9.1219 C.ar      1 UNK         0.0000 
     10 C10         1.2727   27.3501    9.0964 C.ar      1 UNK         0.0000 
     11 C11         2.0199   28.2836    8.3872 C.ar      1 UNK         0.0000 
     12 C12         3.1770   27.9341    7.6659 C.ar      1 UNK         0.0000 
     13 C13         3.5343   26.5623    7.6386 C.ar      1 UNK         0.0000 
     14 C14         4.0332   29.0498    7.0632 C.3       1 UNK         0.0000 
     15 N15         5.0965   29.5174    8.0807 N.4       1 UNK         0.0000 
     16 C16         4.5074   30.1823    9.3421 C.3       1 UNK         0.0000 
     17 C17         5.6855   30.8669   10.0110 C.3       1 UNK         0.0000 
     18 C18         6.7450   31.0563    8.9141 C.3       1 UNK         0.0000 
     19 C19         7.4288   32.4296    8.9146 C.3       1 UNK         0.0000 
     20 O20         8.6217   31.8422    9.5993 O.3       1 UNK         0.0000 
     21 C21         8.1331   30.4783    9.2543 C.3       1 UNK         0.0000 
     22 C22         6.1199   30.5544    7.5985 C.3       1 UNK         0.0000 
     23 O23         1.6243   29.5883    8.4392 O.3       1 UNK         0.0000 
     24 C24         4.9800   23.1081    7.2500 C.ar      1 UNK         0.0000 
     25 C25         6.3637   23.0073    7.0609 C.ar      1 UNK         0.0000 
     26 C26         6.9538   21.7650    6.8420 C.ar      1 UNK         0.0000 
     27 C27         6.1653   20.6170    6.8346 C.ar      1 UNK         0.0000 
     28 C28         4.7915   20.7026    7.0411 C.ar      1 UNK         0.0000 
     29 C29         4.1994   21.9449    7.2468 C.ar      1 UNK         0.0000 
     30 H30         7.0221   24.6183    3.5994 H         1 UNK         0.0000 
     31 H31         6.4261   26.2423    3.2446 H         1 UNK         0.0000 
     32 H32         7.6940   26.0072    4.4584 H         1 UNK         0.0000 
     33 H33         5.0021   24.7607    4.8490 H         1 UNK         0.0000 
     34 H34         1.0584   25.2755    9.6752 H         1 UNK         0.0000 
     35 H35         0.4017   27.6804    9.6409 H         1 UNK         0.0000 
     36 H36         4.5663   28.7429    6.1638 H         1 UNK         0.0000 
     37 H37         3.4599   29.9410    6.8009 H         1 UNK         0.0000 
     38 H38         3.7579   30.8948    8.9914 H         1 UNK         0.0000 
     39 H39         3.9995   29.4427    9.9587 H         1 UNK         0.0000 
     40 H40         5.3535   31.8132   10.4415 H         1 UNK         0.0000 
     41 H41         6.0443   30.2508   10.8338 H         1 UNK         0.0000 
     42 H42         7.7334   32.8109    7.9388 H         1 UNK         0.0000 
     43 H43         6.9845   33.2039    9.5422 H         1 UNK         0.0000 
     44 H44         8.1999   29.8234   10.1212 H         1 UNK         0.0000 
     45 H45         8.7307   30.1128    8.4176 H         1 UNK         0.0000 
     46 H46         6.7972   30.0572    6.9020 H         1 UNK         0.0000 
     47 H47         5.5571   31.3190    7.0570 H         1 UNK         0.0000 
     48 H48         1.0968   29.8567    9.2215 H         1 UNK         0.0000 
     49 H49         6.9899   23.8878    7.0781 H         1 UNK         0.0000 
     50 H50         8.0202   21.6911    6.6878 H         1 UNK         0.0000 
     51 H51         6.6213   19.6514    6.6768 H         1 UNK         0.0000 
     52 H52         4.1846   19.8079    7.0341 H         1 UNK         0.0000 
     53 H53         3.1303   21.9992    7.3960 H         1 UNK         0.0000 
     54 H54         5.6099   28.6878    8.3573 H         1 UNK         0.0000 
@<TRIPOS>BOND
     1    1    2 1    
     2    1   30 1    
     3    1   31 1    
     4    1   32 1    
     5    2    3 am   BACKBONE|DICT|INTERRES
     6    2   33 1    
     7    3    4 2    
     8    3    5 1    
     9    5   13 1    
    10    5    6 2    
    11    6    7 1    
    12    6   24 1    
    13    7    8 1    
    14    8   13 ar   
    15    8    9 ar   
    16    9   10 ar   
    17    9   34 1    
    18   10   11 ar   
    19   10   35 1    
    20   11   12 ar   
    21   11   23 1    
    22   12   13 ar   
    23   12   14 1    
    24   14   15 1    
    25   14   36 1    
    26   14   37 1    
    27   15   22 1    
    28   15   16 1    
    29   15   54 1    
    30   16   17 1    
    31   16   38 1    
    32   16   39 1    
    33   17   18 1    
    34   17   40 1    
    35   17   41 1    
    36   18   21 1    
    37   18   19 1    
    38   18   22 1    
    39   19   20 1    
    40   19   42 1    
    41   19   43 1    
    42   20   21 1    
    43   21   44 1    
    44   21   45 1    
    45   22   46 1    
    46   22   47 1    
    47   23   48 1    
    48   24   29 ar   
    49   24   25 ar   
    50   25   26 ar   
    51   25   49 1    
    52   26   27 ar   
    53   26   50 1    
    54   27   28 ar   
    55   27   51 1    
    56   28   29 ar   
    57   28   52 1    
    58   29   53 1    
@<TRIPOS>SUBSTRUCTURE
     1 UNK         1 GROUP             0       ****    0 ROOT    
