@<TRIPOS>MOLECULE
/home/yujie/leadopt/data/result/selection/PSK13/lig_37.sdf:1
57   61    1
SMALL
USER_CHARGES


@<TRIPOS>ATOM
      1 C1          6.7626   25.6100    3.9841 C.3       1 UNK         0.0000 
      2 N2          5.7329   25.4962    5.0087 N.am      1 UNK         0.0000 
      3 C3          5.7242   26.2037    6.1464 C.2       1 UNK         0.0000 
      4 O4          6.5874   27.0231    6.4429 O.2       1 UNK         0.0000 
      5 C5          4.6319   25.8894    7.0304 C.2       1 UNK         0.0000 
      6 C6          4.3475   24.5972    7.5190 C.2       1 UNK         0.0000 
      7 O7          3.2792   24.6060    8.3649 O.3       1 UNK         0.0000 
      8 C8          2.8433   25.8871    8.4410 C.ar      1 UNK         0.0000 
      9 C9          1.7346   26.3040    9.1815 C.ar      1 UNK         0.0000 
     10 C10         1.4122   27.6549    9.1051 C.ar      1 UNK         0.0000 
     11 C11         2.1594   28.5426    8.3310 C.ar      1 UNK         0.0000 
     12 C12         3.2835   28.1279    7.5914 C.ar      1 UNK         0.0000 
     13 C13         3.6353   26.7520    7.6399 C.ar      1 UNK         0.0000 
     14 C14         4.0241   29.1518    6.7295 C.3       1 UNK         0.0000 
     15 N15         5.2883   29.5956    7.3117 N.3       1 UNK         0.0000 
     16 C16         6.1186   30.2620    6.3211 C.3       1 UNK         0.0000 
     17 C17         7.2252   30.9731    7.0962 C.3       1 UNK         0.0000 
     18 C18         6.6529   31.0955    8.5176 C.3       1 UNK         0.0000 
     19 C19         6.9075   32.4304    9.2375 C.3       1 UNK         0.0000 
     20 O20         7.9976   31.8028   10.0356 O.3       1 UNK         0.0000 
     21 C21         7.5137   30.4572    9.6155 C.3       1 UNK         0.0000 
     22 C22         5.2112   30.5702    8.3931 C.3       1 UNK         0.0000 
     23 O23         1.7445   29.8448    8.2936 O.3       1 UNK         0.0000 
     24 C24         4.9547   23.2453    7.3090 C.ar      1 UNK         0.0000 
     25 C25         4.1324   22.1129    7.3047 C.ar      1 UNK         0.0000 
     26 C26         4.6726   20.8476    7.0732 C.ar      1 UNK         0.0000 
     27 C27         6.0391   20.6991    6.8423 C.ar      1 UNK         0.0000 
     28 C28         6.8778   21.8220    6.8576 C.ar      1 UNK         0.0000 
     29 C29         6.3302   23.0854    7.1046 C.ar      1 UNK         0.0000 
     30 C30         8.3752   21.6859    6.6316 C.3       1 UNK         0.0000 
     31 O31         6.5343   19.4445    6.6053 O.3       1 UNK         0.0000 
     32 H32         6.5105   24.9881    3.1252 H         1 UNK         0.0000 
     33 H33         6.8588   26.6418    3.6417 H         1 UNK         0.0000 
     34 H34         7.7277   25.2807    4.3740 H         1 UNK         0.0000 
     35 H35         4.9715   24.8560    4.8349 H         1 UNK         0.0000 
     36 H36         1.1563   25.6063    9.7679 H         1 UNK         0.0000 
     37 H37         0.5510   28.0271    9.6423 H         1 UNK         0.0000 
     38 H38         4.2264   28.6738    5.7705 H         1 UNK         0.0000 
     39 H39         3.3941   30.0124    6.4990 H         1 UNK         0.0000 
     40 H40         6.5151   29.5026    5.6471 H         1 UNK         0.0000 
     41 H41         5.5501   30.9421    5.6792 H         1 UNK         0.0000 
     42 H42         8.1470   30.3911    7.0639 H         1 UNK         0.0000 
     43 H43         7.4296   31.9472    6.6473 H         1 UNK         0.0000 
     44 H44         7.3176   33.2467    8.6395 H         1 UNK         0.0000 
     45 H45         6.1344   32.7530    9.9381 H         1 UNK         0.0000 
     46 H46         6.9582   30.0176   10.4412 H         1 UNK         0.0000 
     47 H47         8.3513   29.8407    9.2945 H         1 UNK         0.0000 
     48 H48         4.5040   31.3573    8.1326 H         1 UNK         0.0000 
     49 H49         4.8125   30.1248    9.3051 H         1 UNK         0.0000 
     50 H50         1.2574   30.1243    9.0946 H         1 UNK         0.0000 
     51 H51         3.0685   22.2070    7.4706 H         1 UNK         0.0000 
     52 H52         4.0220   19.9845    7.0665 H         1 UNK         0.0000 
     53 H53         6.9810   23.9468    7.1318 H         1 UNK         0.0000 
     54 H54         8.8929   22.6437    6.6932 H         1 UNK         0.0000 
     55 H55         8.5691   21.2537    5.6500 H         1 UNK         0.0000 
     56 H56         8.8086   21.0160    7.3754 H         1 UNK         0.0000 
     57 H57         5.8221   18.7930    6.5722 H         1 UNK         0.0000 
@<TRIPOS>BOND
     1    1    2 1    
     2    1   32 1    
     3    1   33 1    
     4    1   34 1    
     5    2    3 am   BACKBONE|DICT|INTERRES
     6    2   35 1    
     7    3    4 2    
     8    3    5 1    
     9    5   13 1    
    10    5    6 2    
    11    6    7 1    
    12    6   24 1    
    13    7    8 1    
    14    8   13 ar   
    15    8    9 ar   
    16    9   10 ar   
    17    9   36 1    
    18   10   11 ar   
    19   10   37 1    
    20   11   12 ar   
    21   11   23 1    
    22   12   13 ar   
    23   12   14 1    
    24   14   15 1    
    25   14   38 1    
    26   14   39 1    
    27   15   22 1    
    28   15   16 1    
    29   16   17 1    
    30   16   40 1    
    31   16   41 1    
    32   17   18 1    
    33   17   42 1    
    34   17   43 1    
    35   18   21 1    
    36   18   19 1    
    37   18   22 1    
    38   19   20 1    
    39   19   44 1    
    40   19   45 1    
    41   20   21 1    
    42   21   46 1    
    43   21   47 1    
    44   22   48 1    
    45   22   49 1    
    46   23   50 1    
    47   24   29 ar   
    48   24   25 ar   
    49   25   26 ar   
    50   25   51 1    
    51   26   27 ar   
    52   26   52 1    
    53   27   28 ar   
    54   27   31 1    
    55   28   29 ar   
    56   28   30 1    
    57   29   53 1    
    58   30   54 1    
    59   30   55 1    
    60   30   56 1    
    61   31   57 1    
@<TRIPOS>SUBSTRUCTURE
     1 UNK         1 GROUP             0       ****    0 ROOT    
