/home/yujie/leadopt/data/result/selection/PSK13/lig_23.sdf:1
                    3D
 Schrodinger Suite 2020-3.
 57 61  0  0  1  0            999 V2000
    7.1142   25.7514    3.9680 C   0  0  0  0  0  0
    6.0363   25.3877    4.8944 N   0  0  0  0  0  0
    5.3483   24.1734    4.4495 C   0  0  0  0  0  0
    5.8228   26.1016    6.0394 C   0  0  0  0  0  0
    6.5522   27.0376    6.3574 O   0  0  0  0  0  0
    4.7099   25.7733    6.9156 C   0  0  0  0  0  0
    4.4684   24.5075    7.4955 C   0  0  0  0  0  0
    3.3672   24.5251    8.2957 O   0  0  0  0  0  0
    2.9339   25.8057    8.3474 C   0  0  0  0  0  0
    1.8640   26.2415    9.1320 C   0  0  0  0  0  0
    1.6103   27.6087    9.1353 C   0  0  0  0  0  0
    2.3668   28.4906    8.3681 C   0  0  0  0  0  0
    3.4187   28.0461    7.5450 C   0  0  0  0  0  0
    3.7344   26.6573    7.5460 C   0  0  0  0  0  0
    4.1480   29.0775    6.6931 C   0  0  0  0  0  0
    5.3740   29.5783    7.3110 N   0  0  2  0  0  0
    6.1344   30.3423    6.3470 C   0  0  0  0  0  0
    7.2319   31.0615    7.1190 C   0  0  0  0  0  0
    6.6830   31.0935    8.5507 C   0  0  0  0  0  0
    6.8863   32.4094    9.3144 C   0  0  0  0  0  0
    8.0480   31.8184   10.0374 O   0  0  0  0  0  0
    7.6019   30.4620    9.6047 C   0  0  0  0  0  0
    5.2638   30.4992    8.4348 C   0  0  0  0  0  0
    2.0659   29.8251    8.4415 O   0  0  0  0  0  0
    5.1392   23.1685    7.4262 C   0  0  0  0  0  0
    4.3653   22.0046    7.5118 C   0  0  0  0  0  0
    4.9624   20.7529    7.3919 C   0  0  0  0  0  0
    6.3364   20.6664    7.1827 C   0  0  0  0  0  0
    7.1169   21.8157    7.1001 C   0  0  0  0  0  0
    6.5221   23.0648    7.2425 C   0  0  0  0  0  0
    6.9336   19.4426    7.0732 O   0  0  0  0  0  0
    7.5954   26.6996    4.2122 H   0  0  0  0  0  0
    7.8840   24.9783    3.9591 H   0  0  0  0  0  0
    6.7201   25.8416    2.9554 H   0  0  0  0  0  0
    4.5339   23.8787    5.0963 H   0  0  0  0  0  0
    4.9371   24.2828    3.4475 H   0  0  0  0  0  0
    6.0522   23.3398    4.4186 H   0  0  0  0  0  0
    1.2915   25.5523    9.7352 H   0  0  0  0  0  0
    0.8158   28.0020    9.7509 H   0  0  0  0  0  0
    4.3990   28.5986    5.7456 H   0  0  0  0  0  0
    3.4893   29.9081    6.4343 H   0  0  0  0  0  0
    6.5339   29.6216    5.6417 H   0  0  0  0  0  0
    5.5157   31.0232    5.7568 H   0  0  0  0  0  0
    8.1740   30.5181    7.0413 H   0  0  0  0  0  0
    7.3851   32.0613    6.7107 H   0  0  0  0  0  0
    7.2097   33.2733    8.7320 H   0  0  0  0  0  0
    6.1269   32.6527   10.0543 H   0  0  0  0  0  0
    7.0896   29.9887   10.4410 H   0  0  0  0  0  0
    8.4468   29.8746    9.2430 H   0  0  0  0  0  0
    4.5053   31.2547    8.2253 H   0  0  0  0  0  0
    4.9147   29.9886    9.3338 H   0  0  0  0  0  0
    1.5137   30.0847    9.2021 H   0  0  0  0  0  0
    3.2959   22.0663    7.6527 H   0  0  0  0  0  0
    4.3568   19.8598    7.4520 H   0  0  0  0  0  0
    8.1833   21.7373    6.9442 H   0  0  0  0  0  0
    7.1410   23.9484    7.1878 H   0  0  0  0  0  0
    6.3036   18.7235    7.1699 H   0  0  0  0  0  0
  1  2  1  0  0  0
  1 32  1  0  0  0
  1 33  1  0  0  0
  1 34  1  0  0  0
  2  3  1  0  0  0
  2  4  1  0  0  0
  3 35  1  0  0  0
  3 36  1  0  0  0
  3 37  1  0  0  0
  4  5  2  0  0  0
  4  6  1  0  0  0
  6 14  1  0  0  0
  6  7  2  0  0  0
  7  8  1  0  0  0
  7 25  1  0  0  0
  8  9  1  0  0  0
  9 14  1  0  0  0
  9 10  2  0  0  0
 10 11  1  0  0  0
 10 38  1  0  0  0
 11 12  2  0  0  0
 11 39  1  0  0  0
 12 13  1  0  0  0
 12 24  1  0  0  0
 13 14  2  0  0  0
 13 15  1  0  0  0
 15 16  1  0  0  0
 15 40  1  0  0  0
 15 41  1  0  0  0
 16 23  1  0  0  0
 16 17  1  0  0  0
 17 18  1  0  0  0
 17 42  1  0  0  0
 17 43  1  0  0  0
 18 19  1  0  0  0
 18 44  1  0  0  0
 18 45  1  0  0  0
 19 22  1  0  0  0
 19 20  1  0  0  0
 19 23  1  0  0  0
 20 21  1  0  0  0
 20 46  1  0  0  0
 20 47  1  0  0  0
 21 22  1  0  0  0
 22 48  1  0  0  0
 22 49  1  0  0  0
 23 50  1  0  0  0
 23 51  1  0  0  0
 24 52  1  0  0  0
 25 30  1  0  0  0
 25 26  2  0  0  0
 26 27  1  0  0  0
 26 53  1  0  0  0
 27 28  2  0  0  0
 27 54  1  0  0  0
 28 29  1  0  0  0
 28 31  1  0  0  0
 29 30  2  0  0  0
 29 55  1  0  0  0
 30 56  1  0  0  0
 31 57  1  0  0  0
M  END
> <s_m_source_file>
/home/yujie/leadopt/data/result/selection/PSK13/lig_23.sdf

> <i_m_source_file_index>
1

> <i_lp_mmshare_version>
51139

> <i_f3d_flags>
0

> <s_epik_input>
W2NIXTFbY0hdYyhbT0hdKVtjSF1bY0hdYzEtYyhvMiljKEMoPU8pTihbQ0gzXSlbQ0gzXSljKGMyMyljKGMoW09IXSlbY0hdW2NIXTMpW0NIMl1OKFtDSDJdNClbQ0gyXVtDSDJdQzQ1W0NIMl1PW0NIMl01

> <s_epik_cmdline>
J2VwaWtfcHl0aG9uJywgJy1waHQnLCAnMi4wJywgJy1waCcsICc3LjAnLCAnLXRuJywgJzgnLCAnLW1hJywgJzIwMCcsICctaW1hZScsICc8aW5maWxlLm1hZT4nLCAnLW9tYWUnLCAnPG91dGZpbGUubWFlPic=

> <r_epik_Ionization_Penalty>
  1.4470

> <r_epik_Ionization_Penalty_Charging>
  0.0000

> <r_epik_Ionization_Penalty_Neutral>
  1.4470

> <r_epik_State_Penalty>
  2.0381

> <r_epik_Charging_Adjusted_Penalty>
2.03815

> <i_epik_Tot_Q>
0

> <i_epik_Tot_abs_Q>
0

> <s_lp_Force_Field>
OPLS3e

> <r_lp_Energy>
35.0204

> <b_lp_Chiralities_Consistent>
1

> <s_lp_Variant>
/home/yujie/leadopt/data/result/selection/PSK13/lig_23.sdf:1-3

> <s_i_glide_gridfile>
glide-grid_PSK13

> <i_i_glide_lignum>
3

> <i_i_glide_rotatable_bonds>
7

> <r_i_docking_score>
-6.66850743677657

> <r_i_glide_ligand_efficiency>
-0.215113143121825

> <r_i_glide_ligand_efficiency_sa>
-0.675752265104493

> <r_i_glide_ligand_efficiency_ln>
-1.50395279220272

> <r_i_glide_gscore>
-8.70665743677657

> <r_i_glide_lipo>
-4.61195346426547

> <r_i_glide_hbond>
-0.196595613807812

> <r_i_glide_metal>
-0

> <r_i_glide_rewards>
-0.914473619509025

> <r_i_glide_evdw>
-46.5227012634277

> <r_i_glide_ecoul>
-7.34318876266479

> <r_i_glide_erotb>
0.443978638376849

> <r_i_glide_esite>
0

> <r_i_glide_emodel>
-80.4820901324571

> <r_i_glide_energy>
-53.8658900260925

> <r_i_glide_einternal>
6.16419458389282

> <i_i_glide_confnum>
199

> <i_i_glide_posenum>
296

> <r_i_glide_eff_state_penalty>
2.03815

$$$$
