@<TRIPOS>MOLECULE
/home/yujie/leadopt/data/result/selection/PSK13/lig_43.sdf:1
53   57    1
SMALL
USER_CHARGES


@<TRIPOS>ATOM
      1 O1          7.0580   19.7065    7.1125 O.3       1 UNK         0.0000 
      2 C2          6.3850   20.8912    7.2402 C.ar      1 UNK         0.0000 
      3 C3          4.9991   20.9037    7.3966 C.ar      1 UNK         0.0000 
      4 C4          4.3366   22.1248    7.5357 C.ar      1 UNK         0.0000 
      5 C5          5.0877   23.3083    7.5185 C.ar      1 UNK         0.0000 
      6 N6          6.4433   23.3024    7.4039 N.ar      1 UNK         0.0000 
      7 C7          7.0687   22.1094    7.2415 C.ar      1 UNK         0.0000 
      8 C8          4.4261   24.6497    7.5711 C.2       1 UNK         0.0000 
      9 O9          3.2531   24.6502    8.2646 O.3       1 UNK         0.0000 
     10 C10         2.7979   25.9266    8.2709 C.ar      1 UNK         0.0000 
     11 C11         1.6245   26.3483    8.8977 C.ar      1 UNK         0.0000 
     12 C12         1.3074   27.6984    8.7887 C.ar      1 UNK         0.0000 
     13 C13         2.1278   28.5872    8.0978 C.ar      1 UNK         0.0000 
     14 C14         3.3255   28.1691    7.4853 C.ar      1 UNK         0.0000 
     15 C15         3.6649   26.7912    7.5629 C.ar      1 UNK         0.0000 
     16 C16         4.7327   25.9388    7.0836 C.2       1 UNK         0.0000 
     17 C17         5.9031   26.3040    6.3276 C.2       1 UNK         0.0000 
     18 O18         6.6402   27.2035    6.7262 O.2       1 UNK         0.0000 
     19 N19         6.0930   25.6974    5.1389 N.am      1 UNK         0.0000 
     20 C20         7.0366   26.0218    4.0473 C.3       1 UNK         0.0000 
     21 C21         6.3041   24.9354    3.2416 C.3       1 UNK         0.0000 
     22 C22         5.6228   24.4316    4.5251 C.3       1 UNK         0.0000 
     23 C23         4.2011   29.2081    6.7884 C.3       1 UNK         0.0000 
     24 N24         5.3690   29.6956    7.6722 N.4       1 UNK         0.0000 
     25 C25         6.2833   30.7299    6.9831 C.3       1 UNK         0.0000 
     26 C26         6.8202   31.6210    8.1133 C.3       1 UNK         0.0000 
     27 C27         6.1892   31.1237    9.4139 C.3       1 UNK         0.0000 
     28 C28         4.9345   30.3769    8.9841 C.3       1 UNK         0.0000 
     29 O29         1.7345   29.8985    8.0416 O.3       1 UNK         0.0000 
     30 H30         8.0122   19.8066    7.1101 H         1 UNK         0.0000 
     31 H31         4.4453   19.9756    7.4034 H         1 UNK         0.0000 
     32 H32         3.2608   22.1470    7.6321 H         1 UNK         0.0000 
     33 H33         8.1429   22.1485    7.1383 H         1 UNK         0.0000 
     34 H34         0.9921   25.6560    9.4328 H         1 UNK         0.0000 
     35 H35         0.3997   28.0683    9.2418 H         1 UNK         0.0000 
     36 H36         6.8376   27.0417    3.7204 H         1 UNK         0.0000 
     37 H37         8.0587   25.8427    4.3830 H         1 UNK         0.0000 
     38 H38         7.0065   24.1990    2.8495 H         1 UNK         0.0000 
     39 H39         5.5988   25.3615    2.5261 H         1 UNK         0.0000 
     40 H40         6.0589   23.5698    5.0217 H         1 UNK         0.0000 
     41 H41         4.5352   24.4314    4.5408 H         1 UNK         0.0000 
     42 H42         4.6548   28.8174    5.8765 H         1 UNK         0.0000 
     43 H43         3.6531   30.1096    6.5087 H         1 UNK         0.0000 
     44 H44         7.0446   30.1670    6.4418 H         1 UNK         0.0000 
     45 H45         5.6695   31.3078    6.2887 H         1 UNK         0.0000 
     46 H46         7.9091   31.5927    8.1631 H         1 UNK         0.0000 
     47 H47         6.5377   32.6586    7.9267 H         1 UNK         0.0000 
     48 H48         5.9528   31.9433   10.0938 H         1 UNK         0.0000 
     49 H49         6.8609   30.4433    9.9395 H         1 UNK         0.0000 
     50 H50         4.1032   31.0421    8.7424 H         1 UNK         0.0000 
     51 H51         4.5780   29.6201    9.6840 H         1 UNK         0.0000 
     52 H52         1.2178   30.1794    8.8152 H         1 UNK         0.0000 
     53 H53         5.9259   28.8798    7.9127 H         1 UNK         0.0000 
@<TRIPOS>BOND
     1    1    2 1    
     2    1   30 1    
     3    2    7 ar   
     4    2    3 ar   
     5    3    4 ar   
     6    3   31 1    
     7    4    5 ar   
     8    4   32 1    
     9    5    6 ar   
    10    5    8 1    
    11    6    7 ar   
    12    7   33 1    
    13    8   16 2    
    14    8    9 1    
    15    9   10 1    
    16   10   15 ar   
    17   10   11 ar   
    18   11   12 ar   
    19   11   34 1    
    20   12   13 ar   
    21   12   35 1    
    22   13   14 ar   
    23   13   29 1    
    24   14   15 ar   
    25   14   23 1    
    26   15   16 1    
    27   16   17 1    
    28   17   18 2    
    29   17   19 am   BACKBONE|DICT|INTERRES
    30   19   22 1    
    31   19   20 1    
    32   20   21 1    
    33   20   36 1    
    34   20   37 1    
    35   21   22 1    
    36   21   38 1    
    37   21   39 1    
    38   22   40 1    
    39   22   41 1    
    40   23   24 1    
    41   23   42 1    
    42   23   43 1    
    43   24   28 1    
    44   24   25 1    
    45   24   53 1    
    46   25   26 1    
    47   25   44 1    
    48   25   45 1    
    49   26   27 1    
    50   26   46 1    
    51   26   47 1    
    52   27   28 1    
    53   27   48 1    
    54   27   49 1    
    55   28   50 1    
    56   28   51 1    
    57   29   52 1    
@<TRIPOS>SUBSTRUCTURE
     1 UNK         1 GROUP             0       ****    0 ROOT    
