/home/yujie/leadopt/data/result/selection/PSK13/lig_33.sdf:1
                    3D
 Schrodinger Suite 2020-3.
 53 57  0  0  1  0            999 V2000
    6.7746   25.6206    3.9973 C   0  0  0  0  0  0
    5.7332   25.5272    5.0099 N   0  0  0  0  0  0
    5.7266   26.2376    6.1463 C   0  0  0  0  0  0
    6.5830   27.0652    6.4411 O   0  0  0  0  0  0
    4.6367   25.9126    7.0274 C   0  0  0  0  0  0
    4.3729   24.6141    7.5143 C   0  0  0  0  0  0
    3.2834   24.6063    8.3314 O   0  0  0  0  0  0
    2.8391   25.8832    8.4134 C   0  0  0  0  0  0
    1.7293   26.2834    9.1569 C   0  0  0  0  0  0
    1.4025   27.6339    9.1055 C   0  0  0  0  0  0
    2.1519   28.5394    8.3589 C   0  0  0  0  0  0
    3.2788   28.1408    7.6155 C   0  0  0  0  0  0
    3.6358   26.7662    7.6410 C   0  0  0  0  0  0
    4.0084   29.1818    6.7686 C   0  0  0  0  0  0
    5.2760   29.6255    7.3433 N   0  0  1  0  0  0
    6.0553   30.3542    6.3597 C   0  0  0  0  0  0
    7.1766   31.0517    7.1187 C   0  0  0  0  0  0
    6.6442   31.1151    8.5556 C   0  0  0  0  0  0
    6.8852   32.4348    9.3037 C   0  0  0  0  0  0
    8.0289   31.8189   10.0343 O   0  0  0  0  0  0
    7.5571   30.4711    9.6055 C   0  0  0  0  0  0
    5.2104   30.5557    8.4642 C   0  0  0  0  0  0
    1.7392   29.8418    8.3488 O   0  0  0  0  0  0
    5.0230   23.2707    7.3527 C   0  0  0  0  0  0
    4.3012   22.0776    7.5012 C   0  0  0  0  0  0
    4.9602   20.8615    7.3010 C   0  0  0  0  0  0
    6.3146   20.8618    6.9656 C   0  0  0  0  0  0
    6.9708   22.0869    6.8425 C   0  0  0  0  0  0
    6.3471   23.2745    7.0371 N   0  0  0  0  0  0
    6.9932   19.6874    6.7853 O   0  0  0  0  0  0
    6.5379   24.9767    3.1488 H   0  0  0  0  0  0
    6.8704   26.6452    3.6403 H   0  0  0  0  0  0
    7.7374   25.3094    4.4087 H   0  0  0  0  0  0
    4.9713   24.8901    4.8349 H   0  0  0  0  0  0
    1.1480   25.5725    9.7269 H   0  0  0  0  0  0
    0.5368   27.9929    9.6417 H   0  0  0  0  0  0
    4.2039   28.7231    5.7998 H   0  0  0  0  0  0
    3.3727   30.0437    6.5593 H   0  0  0  0  0  0
    6.4381   29.6316    5.6416 H   0  0  0  0  0  0
    5.4509   31.0521    5.7757 H   0  0  0  0  0  0
    8.1010   30.4798    7.0365 H   0  0  0  0  0  0
    7.3570   32.0416    6.6986 H   0  0  0  0  0  0
    7.2361   33.2795    8.7071 H   0  0  0  0  0  0
    6.1345   32.7170   10.0420 H   0  0  0  0  0  0
    7.0415   30.0035   10.4414 H   0  0  0  0  0  0
    8.3911   29.8701    9.2420 H   0  0  0  0  0  0
    4.4706   31.3318    8.2622 H   0  0  0  0  0  0
    4.8586   30.0588    9.3699 H   0  0  0  0  0  0
    1.2338   30.1147    9.1421 H   0  0  0  0  0  0
    3.2509   22.0902    7.7529 H   0  0  0  0  0  0
    4.4294   19.9259    7.4071 H   0  0  0  0  0  0
    8.0193   22.1379    6.5911 H   0  0  0  0  0  0
    7.9284   19.8188    6.6181 H   0  0  0  0  0  0
  1  2  1  0  0  0
  1 31  1  0  0  0
  1 32  1  0  0  0
  1 33  1  0  0  0
  2  3  1  0  0  0
  2 34  1  0  0  0
  3  4  2  0  0  0
  3  5  1  0  0  0
  5 13  1  0  0  0
  5  6  2  0  0  0
  6  7  1  0  0  0
  6 24  1  0  0  0
  7  8  1  0  0  0
  8 13  1  0  0  0
  8  9  2  0  0  0
  9 10  1  0  0  0
  9 35  1  0  0  0
 10 11  2  0  0  0
 10 36  1  0  0  0
 11 12  1  0  0  0
 11 23  1  0  0  0
 12 13  2  0  0  0
 12 14  1  0  0  0
 14 15  1  0  0  0
 14 37  1  0  0  0
 14 38  1  0  0  0
 15 22  1  0  0  0
 15 16  1  0  0  0
 16 17  1  0  0  0
 16 39  1  0  0  0
 16 40  1  0  0  0
 17 18  1  0  0  0
 17 41  1  0  0  0
 17 42  1  0  0  0
 18 21  1  0  0  0
 18 19  1  0  0  0
 18 22  1  0  0  0
 19 20  1  0  0  0
 19 43  1  0  0  0
 19 44  1  0  0  0
 20 21  1  0  0  0
 21 45  1  0  0  0
 21 46  1  0  0  0
 22 47  1  0  0  0
 22 48  1  0  0  0
 23 49  1  0  0  0
 24 29  1  0  0  0
 24 25  2  0  0  0
 25 26  1  0  0  0
 25 50  1  0  0  0
 26 27  2  0  0  0
 26 51  1  0  0  0
 27 28  1  0  0  0
 27 30  1  0  0  0
 28 29  2  0  0  0
 28 52  1  0  0  0
 30 53  1  0  0  0
M  END
> <s_m_source_file>
/home/yujie/leadopt/data/result/selection/PSK13/lig_33.sdf

> <i_m_source_file_index>
1

> <i_lp_mmshare_version>
51139

> <i_f3d_flags>
0

> <s_epik_input>
bjFbY0hdYyhbT0hdKVtjSF1bY0hdYzEtYyhvMiljKEMoPU8pW05IXVtDSDNdKWMoYzIzKWMoYyhbT0hdKVtjSF1bY0hdMylbQ0gyXU4oW0NIMl00KVtDSDJdW0NIMl1DNDVbQ0gyXU9bQ0gyXTU=

> <s_epik_cmdline>
J2VwaWtfcHl0aG9uJywgJy1waHQnLCAnMi4wJywgJy1waCcsICc3LjAnLCAnLXRuJywgJzgnLCAnLW1hJywgJzIwMCcsICctaW1hZScsICc8aW5maWxlLm1hZT4nLCAnLW9tYWUnLCAnPG91dGZpbGUubWFlPic=

> <r_epik_Ionization_Penalty>
  1.4058

> <r_epik_Ionization_Penalty_Charging>
  0.0000

> <r_epik_Ionization_Penalty_Neutral>
  1.4058

> <r_epik_State_Penalty>
  1.4610

> <r_epik_Charging_Adjusted_Penalty>
1.461

> <i_epik_Tot_Q>
0

> <i_epik_Tot_abs_Q>
0

> <s_lp_Force_Field>
OPLS3e

> <r_lp_Energy>
31.4329

> <b_lp_Chiralities_Consistent>
1

> <s_lp_Variant>
/home/yujie/leadopt/data/result/selection/PSK13/lig_33.sdf:1-5

> <s_i_glide_gridfile>
glide-grid_PSK13

> <i_i_glide_lignum>
5

> <i_i_glide_rotatable_bonds>
7

> <r_i_docking_score>
-7.13766659887557

> <r_i_glide_ligand_efficiency>
-0.237922219962519

> <r_i_glide_ligand_efficiency_sa>
-0.739279654918097

> <r_i_glide_ligand_efficiency_ln>
-1.6217556223711

> <r_i_glide_gscore>
-8.59866659887557

> <r_i_glide_lipo>
-4.40658022913082

> <r_i_glide_hbond>
-0.167613923652749

> <r_i_glide_metal>
-0

> <r_i_glide_rewards>
-1.01890265050039

> <r_i_glide_evdw>
-47.4807624816895

> <r_i_glide_ecoul>
-7.34249305725098

> <r_i_glide_erotb>
0.469842287080515

> <r_i_glide_esite>
0

> <r_i_glide_emodel>
-83.9993444829009

> <r_i_glide_energy>
-54.8232555389404

> <r_i_glide_einternal>
3.53478360176086

> <i_i_glide_confnum>
141

> <i_i_glide_posenum>
384

> <r_i_glide_eff_state_penalty>
1.461

$$$$
