@<TRIPOS>MOLECULE
/home/yujie/leadopt/data/result/selection/PSK13/lig_14.sdf:1
46   49    1
SMALL
USER_CHARGES


@<TRIPOS>ATOM
      1 C1          6.7581   25.4857    4.0495 C.3       1 UNK         0.0000 
      2 N2          5.7261   25.3846    5.0714 N.am      1 UNK         0.0000 
      3 C3          5.6633   26.1599    6.1625 C.2       1 UNK         0.0000 
      4 O4          6.4682   27.0529    6.4172 O.2       1 UNK         0.0000 
      5 C5          4.5721   25.8504    7.0435 C.2       1 UNK         0.0000 
      6 C6          4.2884   24.5692    7.5595 C.2       1 UNK         0.0000 
      7 O7          3.2135   24.5926    8.3946 O.3       1 UNK         0.0000 
      8 C8          2.7800   25.8751    8.4415 C.ar      1 UNK         0.0000 
      9 C9          1.6830   26.3122    9.1834 C.ar      1 UNK         0.0000 
     10 C10         1.3745   27.6634    9.0945 C.ar      1 UNK         0.0000 
     11 C11         2.1282   28.5337    8.3098 C.ar      1 UNK         0.0000 
     12 C12         3.2505   28.1007    7.5797 C.ar      1 UNK         0.0000 
     13 C13         3.5822   26.7233    7.6394 C.ar      1 UNK         0.0000 
     14 C14         4.0536   29.1234    6.7784 C.3       1 UNK         0.0000 
     15 N15         5.1816   29.6297    7.5479 N.3       1 UNK         0.0000 
     16 C16         6.0139   30.7009    7.0018 C.3       1 UNK         0.0000 
     17 C17         6.2333   31.2240    8.4159 C.3       1 UNK         0.0000 
     18 C18         4.9790   30.4337    8.7563 C.3       1 UNK         0.0000 
     19 O19         1.7335   29.8435    8.2630 O.3       1 UNK         0.0000 
     20 C20         4.9039   23.2154    7.3869 C.ar      1 UNK         0.0000 
     21 C21         4.0869   22.0786    7.4364 C.ar      1 UNK         0.0000 
     22 C22         4.6327   20.8124    7.2469 C.ar      1 UNK         0.0000 
     23 C23         5.9970   20.6834    7.0010 C.ar      1 UNK         0.0000 
     24 C24         6.8223   21.8031    6.9587 C.ar      1 UNK         0.0000 
     25 C25         6.2788   23.0659    7.1704 C.ar      1 UNK         0.0000 
     26 O26         6.5373   19.4440    6.8112 O.3       1 UNK         0.0000 
     27 H27         6.7351   24.6058    3.4061 H         1 UNK         0.0000 
     28 H28         6.5994   26.3677    3.4317 H         1 UNK         0.0000 
     29 H29         7.7481   25.5582    4.5018 H         1 UNK         0.0000 
     30 H30         4.9908   24.7073    4.9261 H         1 UNK         0.0000 
     31 H31         1.0989   25.6286    9.7817 H         1 UNK         0.0000 
     32 H32         0.5320   28.0574    9.6410 H         1 UNK         0.0000 
     33 H33         4.4226   28.6668    5.8603 H         1 UNK         0.0000 
     34 H34         3.4176   29.9521    6.4647 H         1 UNK         0.0000 
     35 H35         6.8909   30.3388    6.4597 H         1 UNK         0.0000 
     36 H36         5.4591   31.4018    6.3702 H         1 UNK         0.0000 
     37 H37         6.1369   32.3014    8.5327 H         1 UNK         0.0000 
     38 H38         7.1400   30.8596    8.9015 H         1 UNK         0.0000 
     39 H39         4.0715   31.0419    8.7261 H         1 UNK         0.0000 
     40 H40         4.9911   29.8472    9.6779 H         1 UNK         0.0000 
     41 H41         1.2564   30.1336    9.0666 H         1 UNK         0.0000 
     42 H42         3.0253   22.1760    7.6061 H         1 UNK         0.0000 
     43 H43         3.9948   19.9411    7.2817 H         1 UNK         0.0000 
     44 H44         7.8816   21.6876    6.7732 H         1 UNK         0.0000 
     45 H45         6.9320   23.9248    7.1499 H         1 UNK         0.0000 
     46 H46         5.8620   18.7564    6.8281 H         1 UNK         0.0000 
@<TRIPOS>BOND
     1    1    2 1    
     2    1   27 1    
     3    1   28 1    
     4    1   29 1    
     5    2    3 am   BACKBONE|DICT|INTERRES
     6    2   30 1    
     7    3    4 2    
     8    3    5 1    
     9    5   13 1    
    10    5    6 2    
    11    6    7 1    
    12    6   20 1    
    13    7    8 1    
    14    8   13 ar   
    15    8    9 ar   
    16    9   10 ar   
    17    9   31 1    
    18   10   11 ar   
    19   10   32 1    
    20   11   12 ar   
    21   11   19 1    
    22   12   13 ar   
    23   12   14 1    
    24   14   15 1    
    25   14   33 1    
    26   14   34 1    
    27   15   18 1    
    28   15   16 1    
    29   16   17 1    
    30   16   35 1    
    31   16   36 1    
    32   17   18 1    
    33   17   37 1    
    34   17   38 1    
    35   18   39 1    
    36   18   40 1    
    37   19   41 1    
    38   20   25 ar   
    39   20   21 ar   
    40   21   22 ar   
    41   21   42 1    
    42   22   23 ar   
    43   22   43 1    
    44   23   24 ar   
    45   23   26 1    
    46   24   25 ar   
    47   24   44 1    
    48   25   45 1    
    49   26   46 1    
@<TRIPOS>SUBSTRUCTURE
     1 UNK         1 GROUP             0       ****    0 ROOT    
