@<TRIPOS>MOLECULE
/home/yujie/leadopt/data/result/selection/PSK13/lig_1.sdf:1
52   55    1
SMALL
USER_CHARGES


@<TRIPOS>ATOM
      1 C1          6.7631   25.6525    4.1013 C.3       1 UNK         0.0000 
      2 N2          5.7340   25.4743    5.1140 N.am      1 UNK         0.0000 
      3 C3          5.6835   26.1851    6.2493 C.2       1 UNK         0.0000 
      4 O4          6.4812   27.0730    6.5462 O.2       1 UNK         0.0000 
      5 C5          4.5824   25.8448    7.1018 C.2       1 UNK         0.0000 
      6 C6          4.3005   24.5531    7.5918 C.2       1 UNK         0.0000 
      7 O7          3.1923   24.5595    8.3860 O.3       1 UNK         0.0000 
      8 C8          2.7243   25.8291    8.4018 C.ar      1 UNK         0.0000 
      9 C9          1.5636   26.2417    9.0559 C.ar      1 UNK         0.0000 
     10 C10         1.2124   27.5794    8.8990 C.ar      1 UNK         0.0000 
     11 C11         1.9991   28.4617    8.1616 C.ar      1 UNK         0.0000 
     12 C12         3.2063   28.0626    7.5576 C.ar      1 UNK         0.0000 
     13 C13         3.5481   26.6922    7.6408 C.ar      1 UNK         0.0000 
     14 C14         4.0862   29.0925    6.8484 C.3       1 UNK         0.0000 
     15 N15         5.2550   29.5878    7.7288 N.4       1 UNK         0.0000 
     16 C16         4.7310   30.3517    8.9729 C.3       1 UNK         0.0000 
     17 C17         5.9202   30.8039    9.8360 C.3       1 UNK         0.0000 
     18 C18         6.9519   31.6166    9.0335 C.3       1 UNK         0.0000 
     19 C19         7.4040   30.8617    7.7710 C.3       1 UNK         0.0000 
     20 C20         6.2168   30.4540    6.8853 C.3       1 UNK         0.0000 
     21 O21         1.5913   29.6488    8.0412 O.co2     1 UNK         0.0000 
     22 C22         4.9216   23.2056    7.4041 C.ar      1 UNK         0.0000 
     23 C23         4.1016   22.0736    7.4301 C.ar      1 UNK         0.0000 
     24 C24         4.6426   20.8094    7.2115 C.ar      1 UNK         0.0000 
     25 C25         6.0036   20.6790    6.9559 C.ar      1 UNK         0.0000 
     26 C26         6.8335   21.7961    6.9416 C.ar      1 UNK         0.0000 
     27 C27         6.2956   23.0591    7.1835 C.ar      1 UNK         0.0000 
     28 O28         6.5342   19.4424    6.7293 O.3       1 UNK         0.0000 
     29 H29         6.6692   24.8894    3.3259 H         1 UNK         0.0000 
     30 H30         6.6729   26.6389    3.6418 H         1 UNK         0.0000 
     31 H31         7.7604   25.5719    4.5414 H         1 UNK         0.0000 
     32 H32         5.0076   24.7984    4.9380 H         1 UNK         0.0000 
     33 H33         0.9570   25.5538    9.6268 H         1 UNK         0.0000 
     34 H34         0.3045   27.9541    9.3528 H         1 UNK         0.0000 
     35 H35         4.5296   28.6804    5.9413 H         1 UNK         0.0000 
     36 H36         3.5511   29.9948    6.5480 H         1 UNK         0.0000 
     37 H37         4.1357   31.1911    8.6111 H         1 UNK         0.0000 
     38 H38         4.0720   29.6898    9.5387 H         1 UNK         0.0000 
     39 H39         5.5467   31.3968   10.6720 H         1 UNK         0.0000 
     40 H40         6.3964   29.9279   10.2812 H         1 UNK         0.0000 
     41 H41         7.8130   31.8471    9.6609 H         1 UNK         0.0000 
     42 H42         6.5195   32.5805    8.7513 H         1 UNK         0.0000 
     43 H43         7.9652   29.9697    8.0578 H         1 UNK         0.0000 
     44 H44         8.0944   31.4779    7.1943 H         1 UNK         0.0000 
     45 H45         6.5366   29.8367    6.0418 H         1 UNK         0.0000 
     46 H46         5.6498   31.3127    6.5179 H         1 UNK         0.0000 
     47 H47         3.0397   22.1671    7.6090 H         1 UNK         0.0000 
     48 H48         3.9985   19.9394    7.2251 H         1 UNK         0.0000 
     49 H49         7.8909   21.6866    6.7525 H         1 UNK         0.0000 
     50 H50         6.9481   23.9200    7.1789 H         1 UNK         0.0000 
     51 H51         5.8475   18.7668    6.7083 H         1 UNK         0.0000 
     52 H52         5.7732   28.7749    8.0491 H         1 UNK         0.0000 
@<TRIPOS>BOND
     1    1    2 1    
     2    1   29 1    
     3    1   30 1    
     4    1   31 1    
     5    2    3 am   BACKBONE|DICT|INTERRES
     6    2   32 1    
     7    3    4 2    
     8    3    5 1    
     9    5   13 1    
    10    5    6 2    
    11    6    7 1    
    12    6   22 1    
    13    7    8 1    
    14    8   13 ar   
    15    8    9 ar   
    16    9   10 ar   
    17    9   33 1    
    18   10   11 ar   
    19   10   34 1    
    20   11   12 ar   
    21   11   21 1    
    22   12   13 ar   
    23   12   14 1    
    24   14   15 1    
    25   14   35 1    
    26   14   36 1    
    27   15   20 1    
    28   15   16 1    
    29   15   52 1    
    30   16   17 1    
    31   16   37 1    
    32   16   38 1    
    33   17   18 1    
    34   17   39 1    
    35   17   40 1    
    36   18   19 1    
    37   18   41 1    
    38   18   42 1    
    39   19   20 1    
    40   19   43 1    
    41   19   44 1    
    42   20   45 1    
    43   20   46 1    
    44   22   27 ar   
    45   22   23 ar   
    46   23   24 ar   
    47   23   47 1    
    48   24   25 ar   
    49   24   48 1    
    50   25   26 ar   
    51   25   28 1    
    52   26   27 ar   
    53   26   49 1    
    54   27   50 1    
    55   28   51 1    
@<TRIPOS>SUBSTRUCTURE
     1 UNK         1 GROUP             0       ****    0 ROOT    
