/home/yujie/leadopt/data/result/selection/PSK13/lig_42.sdf:1
                    3D
 Schrodinger Suite 2020-3.
 56 60  0  0  1  0            999 V2000
    6.9342   19.4935    7.1967 O   0  0  0  0  0  0
    6.3788   20.7437    7.2406 C   0  0  0  0  0  0
    7.1886   21.8805    7.2416 C   0  0  0  0  0  0
    6.5983   23.1391    7.3746 C   0  0  0  0  0  0
    5.2021   23.2317    7.4384 C   0  0  0  0  0  0
    4.4063   22.1261    7.4204 N   0  0  0  0  0  0
    4.9970   20.9073    7.3266 C   0  0  0  0  0  0
    4.4843   24.5448    7.5229 C   0  0  0  0  0  0
    3.3426   24.5006    8.2675 O   0  0  0  0  0  0
    2.8681   25.7664    8.3465 C   0  0  0  0  0  0
    1.7332   26.1470    9.0639 C   0  0  0  0  0  0
    1.3966   27.4934    9.0374 C   0  0  0  0  0  0
    2.1546   28.4189    8.3316 C   0  0  0  0  0  0
    3.3179   28.0455    7.6291 C   0  0  0  0  0  0
    3.6830   26.6716    7.6290 C   0  0  0  0  0  0
    4.7487   25.8566    7.0708 C   0  0  0  0  0  0
    5.9031   26.2737    6.3118 C   0  0  0  0  0  0
    6.6076   27.1936    6.7212 O   0  0  0  0  0  0
    6.1457   25.6705    5.1308 N   0  0  0  0  0  0
    5.7333   24.3949    4.4936 C   0  0  0  0  0  0
    6.4394   24.9206    3.2408 C   0  0  0  0  0  0
    7.1121   26.0270    4.0708 C   0  0  0  0  0  0
    4.1331   29.1259    6.9260 C   0  0  0  0  0  0
    5.3178   29.6459    7.7744 N   0  3  0  0  0  0
    4.8239   30.3949    9.0405 C   0  0  0  0  0  0
    6.0344   30.8690    9.8586 C   0  0  0  0  0  0
    7.0173   31.7046    9.0170 C   0  0  0  0  0  0
    7.4502   30.9543    7.7451 C   0  0  0  0  0  0
    6.2363   30.5322    6.9023 C   0  0  0  0  0  0
    1.7421   29.7236    8.3621 O   0  0  0  0  0  0
    7.8831   19.5010    7.3447 H   0  0  0  0  0  0
    8.2631   21.7922    7.1794 H   0  0  0  0  0  0
    7.2173   24.0228    7.3951 H   0  0  0  0  0  0
    4.3458   20.0443    7.3333 H   0  0  0  0  0  0
    1.1450   25.4384    9.6207 H   0  0  0  0  0  0
    0.5328   27.8338    9.5826 H   0  0  0  0  0  0
    6.1730   23.5401    4.9950 H   0  0  0  0  0  0
    4.6503   24.3566    4.4445 H   0  0  0  0  0  0
    5.7346   25.3207    2.5068 H   0  0  0  0  0  0
    7.1750   24.2040    2.8712 H   0  0  0  0  0  0
    6.8913   27.0414    3.7388 H   0  0  0  0  0  0
    8.1297   25.8743    4.4356 H   0  0  0  0  0  0
    4.5497   28.7521    5.9887 H   0  0  0  0  0  0
    3.5430   30.0105    6.6783 H   0  0  0  0  0  0
    4.1978   31.2246    8.7095 H   0  0  0  0  0  0
    4.2086   29.7117    9.6264 H   0  0  0  0  0  0
    5.6766   31.4562   10.7066 H   0  0  0  0  0  0
    6.5419   30.0034   10.2822 H   0  0  0  0  0  0
    7.8922   31.9678    9.6135 H   0  0  0  0  0  0
    6.5436   32.6465    8.7374 H   0  0  0  0  0  0
    8.0270   30.0690    8.0191 H   0  0  0  0  0  0
    8.1179   31.5766    7.1472 H   0  0  0  0  0  0
    6.5337   29.9296    6.0417 H   0  0  0  0  0  0
    5.6448   31.3872    6.5637 H   0  0  0  0  0  0
    1.2159   29.9748    9.1481 H   0  0  0  0  0  0
    5.8659   28.8439    8.0711 H   0  0  0  0  0  0
  1  2  1  0  0  0
  1 31  1  0  0  0
  2  7  1  0  0  0
  2  3  2  0  0  0
  3  4  1  0  0  0
  3 32  1  0  0  0
  4  5  2  0  0  0
  4 33  1  0  0  0
  5  6  1  0  0  0
  5  8  1  0  0  0
  6  7  2  0  0  0
  7 34  1  0  0  0
  8 16  2  0  0  0
  8  9  1  0  0  0
  9 10  1  0  0  0
 10 15  2  0  0  0
 10 11  1  0  0  0
 11 12  2  0  0  0
 11 35  1  0  0  0
 12 13  1  0  0  0
 12 36  1  0  0  0
 13 14  2  0  0  0
 13 30  1  0  0  0
 14 15  1  0  0  0
 14 23  1  0  0  0
 15 16  1  0  0  0
 16 17  1  0  0  0
 17 18  2  0  0  0
 17 19  1  0  0  0
 19 22  1  0  0  0
 19 20  1  0  0  0
 20 21  1  0  0  0
 20 37  1  0  0  0
 20 38  1  0  0  0
 21 22  1  0  0  0
 21 39  1  0  0  0
 21 40  1  0  0  0
 22 41  1  0  0  0
 22 42  1  0  0  0
 23 24  1  0  0  0
 23 43  1  0  0  0
 23 44  1  0  0  0
 24 29  1  0  0  0
 24 25  1  0  0  0
 24 56  1  0  0  0
 25 26  1  0  0  0
 25 45  1  0  0  0
 25 46  1  0  0  0
 26 27  1  0  0  0
 26 47  1  0  0  0
 26 48  1  0  0  0
 27 28  1  0  0  0
 27 49  1  0  0  0
 27 50  1  0  0  0
 28 29  1  0  0  0
 28 51  1  0  0  0
 28 52  1  0  0  0
 29 53  1  0  0  0
 29 54  1  0  0  0
 30 55  1  0  0  0
M  CHG  1  24   1
M  END
> <s_m_source_file>
/home/yujie/leadopt/data/result/selection/PSK13/lig_42.sdf

> <i_m_source_file_index>
1

> <i_lp_mmshare_version>
51139

> <i_f3d_flags>
0

> <s_epik_input>
W09IXWMxW2NIXVtjSF1jKG5bY0hdMSktYyhvMiljKEMoPU8pTjNbQ0gyXVtDSDJdW0NIMl0zKWMoYzI0KWMoYyhbT0hdKVtjSF1bY0hdNClbQ0gyXU41W0NIMl1bQ0gyXVtDSDJdW0NIMl1bQ0gyXTU=

> <s_epik_cmdline>
J2VwaWtfcHl0aG9uJywgJy1waHQnLCAnMi4wJywgJy1waCcsICc3LjAnLCAnLXRuJywgJzgnLCAnLW1hJywgJzIwMCcsICctaW1hZScsICc8aW5maWxlLm1hZT4nLCAnLW9tYWUnLCAnPG91dGZpbGUubWFlPic=

> <r_lp_tautomer_probability>
0.43658

> <r_epik_Ionization_Penalty>
  0.5532

> <r_epik_Ionization_Penalty_Charging>
  0.0185

> <r_epik_Ionization_Penalty_Neutral>
  0.5347

> <r_epik_State_Penalty>
  1.0922

> <r_epik_Charging_Adjusted_Penalty>
1.1107

> <i_epik_Tot_Q>
1

> <i_epik_Tot_abs_Q>
1

> <s_lp_Force_Field>
OPLS3e

> <r_lp_Energy>
25.8892

> <b_lp_Chiralities_Consistent>
1

> <s_lp_Variant>
/home/yujie/leadopt/data/result/selection/PSK13/lig_42.sdf:1-4

> <s_i_glide_gridfile>
glide-grid_PSK13

> <i_i_glide_lignum>
4

> <i_i_glide_rotatable_bonds>
7

> <r_i_docking_score>
-8.32493130482303

> <r_i_glide_ligand_efficiency>
-0.277497710160768

> <r_i_glide_ligand_efficiency_sa>
-0.862249904361739

> <r_i_glide_ligand_efficiency_ln>
-1.89151509984745

> <r_i_glide_gscore>
-9.41717130482303

> <r_i_glide_lipo>
-4.49397808494841

> <r_i_glide_hbond>
-0.16

> <r_i_glide_metal>
-0

> <r_i_glide_rewards>
-1.49203243462789

> <r_i_glide_evdw>
-45.6018905639648

> <r_i_glide_ecoul>
-10.5391569137573

> <r_i_glide_erotb>
0.589807280015115

> <r_i_glide_esite>
0

> <r_i_glide_emodel>
-93.6511813172766

> <r_i_glide_energy>
-56.1410474777222

> <r_i_glide_einternal>
7.695969581604

> <i_i_glide_confnum>
27

> <i_i_glide_posenum>
379

> <r_i_glide_eff_state_penalty>
1.09224

$$$$
