@<TRIPOS>MOLECULE
/home/yujie/leadopt/data/result/selection/PSK13/lig_17.sdf:1
52   56    1
SMALL
USER_CHARGES


@<TRIPOS>ATOM
      1 C1          6.7211   25.3808    3.7694 C.3       1 UNK         0.0000 
      2 N2          5.7341   25.3408    4.8399 N.am      1 UNK         0.0000 
      3 C3          5.7996   26.0405    5.9796 C.2       1 UNK         0.0000 
      4 O4          6.7188   26.7965    6.2851 O.2       1 UNK         0.0000 
      5 C5          4.6761   25.8267    6.8435 C.2       1 UNK         0.0000 
      6 C6          4.3035   24.5811    7.3732 C.2       1 UNK         0.0000 
      7 O7          3.1813   24.6702    8.1388 O.3       1 UNK         0.0000 
      8 C8          2.8267   25.9783    8.1509 C.ar      1 UNK         0.0000 
      9 C9          1.7320   26.5011    8.8415 C.ar      1 UNK         0.0000 
     10 C10         1.5377   27.8758    8.7494 C.ar      1 UNK         0.0000 
     11 C11         2.4046   28.6911    8.0212 C.ar      1 UNK         0.0000 
     12 C12         3.5159   28.1632    7.3335 C.ar      1 UNK         0.0000 
     13 C13         3.7210   26.7636    7.3844 C.ar      1 UNK         0.0000 
     14 C14         4.5414   29.0866    6.6904 C.3       1 UNK         0.0000 
     15 N15         5.7482   29.1296    7.6416 N.4       1 UNK         0.0000 
     16 C16         5.5821   30.0310    8.8670 C.3       1 UNK         0.0000 
     17 C17         6.7785   30.8751    8.4200 C.3       1 UNK         0.0000 
     18 C18         6.5711   32.3328    8.0646 C.3       1 UNK         0.0000 
     19 C19         7.0335   32.6255    9.4890 C.3       1 UNK         0.0000 
     20 O20         7.7282   31.3010    9.4871 O.3       1 UNK         0.0000 
     21 C21         7.0284   29.8860    7.2774 C.3       1 UNK         0.0000 
     22 O22         2.1642   30.0382    8.0415 O.3       1 UNK         0.0000 
     23 C23         4.8891   23.2161    7.2855 C.ar      1 UNK         0.0000 
     24 C24         6.2764   23.0564    7.2329 C.ar      1 UNK         0.0000 
     25 C25         6.8238   21.7872    7.1158 C.ar      1 UNK         0.0000 
     26 C26         5.9844   20.6817    7.0761 C.ar      1 UNK         0.0000 
     27 C27         4.6019   20.8226    7.1522 C.ar      1 UNK         0.0000 
     28 C28         4.0526   22.0960    7.2574 C.ar      1 UNK         0.0000 
     29 O29         6.5345   19.4424    6.9688 O.3       1 UNK         0.0000 
     30 H30         7.6075   25.9525    4.0419 H         1 UNK         0.0000 
     31 H31         7.0328   24.3700    3.5063 H         1 UNK         0.0000 
     32 H32         6.2808   25.8402    2.8856 H         1 UNK         0.0000 
     33 H33         4.8998   24.7974    4.6725 H         1 UNK         0.0000 
     34 H34         1.0739   25.8671    9.4186 H         1 UNK         0.0000 
     35 H35         0.7080   28.3298    9.2745 H         1 UNK         0.0000 
     36 H36         4.9075   28.7071    5.7359 H         1 UNK         0.0000 
     37 H37         4.2051   30.1162    6.5471 H         1 UNK         0.0000 
     38 H38         4.6099   30.5280    8.8651 H         1 UNK         0.0000 
     39 H39         5.7343   29.4426    9.7712 H         1 UNK         0.0000 
     40 H40         7.2358   32.7255    7.2949 H         1 UNK         0.0000 
     41 H41         5.5494   32.5223    7.8056 H         1 UNK         0.0000 
     42 H42         7.7345   33.4428    9.6042 H         1 UNK         0.0000 
     43 H43         6.2590   32.6401   10.2620 H         1 UNK         0.0000 
     44 H44         7.8708   29.2056    7.4146 H         1 UNK         0.0000 
     45 H45         6.9338   30.2577    6.2594 H         1 UNK         0.0000 
     46 H46         1.5989   30.3013    8.7839 H         1 UNK         0.0000 
     47 H47         6.9383   23.9092    7.2752 H         1 UNK         0.0000 
     48 H48         7.8952   21.6585    7.0652 H         1 UNK         0.0000 
     49 H49         3.9572   19.9556    7.1240 H         1 UNK         0.0000 
     50 H50         2.9788   22.2092    7.3062 H         1 UNK         0.0000 
     51 H51         5.8625   18.7638    6.8426 H         1 UNK         0.0000 
     52 H52         5.9844   28.1822    7.9183 H         1 UNK         0.0000 
@<TRIPOS>BOND
     1    1    2 1    
     2    1   30 1    
     3    1   31 1    
     4    1   32 1    
     5    2    3 am   BACKBONE|DICT|INTERRES
     6    2   33 1    
     7    3    4 2    
     8    3    5 1    
     9    5   13 1    
    10    5    6 2    
    11    6    7 1    
    12    6   23 1    
    13    7    8 1    
    14    8   13 ar   
    15    8    9 ar   
    16    9   10 ar   
    17    9   34 1    
    18   10   11 ar   
    19   10   35 1    
    20   11   12 ar   
    21   11   22 1    
    22   12   13 ar   
    23   12   14 1    
    24   14   15 1    
    25   14   36 1    
    26   14   37 1    
    27   15   21 1    
    28   15   16 1    
    29   15   52 1    
    30   16   17 1    
    31   16   38 1    
    32   16   39 1    
    33   17   20 1    
    34   17   18 1    
    35   17   21 1    
    36   18   19 1    
    37   18   40 1    
    38   18   41 1    
    39   19   20 1    
    40   19   42 1    
    41   19   43 1    
    42   21   44 1    
    43   21   45 1    
    44   22   46 1    
    45   23   28 ar   
    46   23   24 ar   
    47   24   25 ar   
    48   24   47 1    
    49   25   26 ar   
    50   25   48 1    
    51   26   27 ar   
    52   26   29 1    
    53   27   28 ar   
    54   27   49 1    
    55   28   50 1    
    56   29   51 1    
@<TRIPOS>SUBSTRUCTURE
     1 UNK         1 GROUP             0       ****    0 ROOT    
