/home/yujie/leadopt/data/result/selection/PSK13/lig_26.sdf:1
                    3D
 Schrodinger Suite 2020-3.
 52 56  0  0  1  0            999 V2000
    5.9345   25.3562    5.0950 C   0  0  0  0  0  0
    5.6308   26.1925    6.3328 C   0  0  0  0  0  0
    6.2981   27.2037    6.5373 O   0  0  0  0  0  0
    4.4888   25.8114    7.1558 C   0  0  0  0  0  0
    4.1762   24.5205    7.6065 C   0  0  0  0  0  0
    3.0417   24.5216    8.3553 O   0  0  0  0  0  0
    2.5776   25.7943    8.3679 C   0  0  0  0  0  0
    1.3936   26.1909    8.9849 C   0  0  0  0  0  0
    1.0332   27.5214    8.8252 C   0  0  0  0  0  0
    1.8426   28.4190    8.1316 C   0  0  0  0  0  0
    3.0733   28.0418    7.5617 C   0  0  0  0  0  0
    3.4295   26.6701    7.6417 C   0  0  0  0  0  0
    3.9789   29.1166    6.9525 C   0  0  0  0  0  0
    5.0444   29.5319    7.9810 N   0  3  2  0  0  0
    4.4483   30.1780    9.2420 C   0  0  0  0  0  0
    5.6491   30.7505    9.9724 C   0  0  0  0  0  0
    6.7046   31.0176    8.8879 C   0  0  0  0  0  0
    7.3339   32.4108    8.9491 C   0  0  0  0  0  0
    8.5552   31.8424    9.5939 O   0  0  0  0  0  0
    8.1125   30.4792    9.2061 C   0  0  0  0  0  0
    6.0985   30.5575    7.5467 C   0  0  0  0  0  0
    1.4300   29.6067    8.0401 O   0  5  0  0  0  0
    4.8138   23.1797    7.4563 C   0  0  0  0  0  0
    6.2027   23.0508    7.3802 C   0  0  0  0  0  0
    6.7761   21.7972    7.1988 C   0  0  0  0  0  0
    5.9627   20.6701    7.1191 C   0  0  0  0  0  0
    4.5780   20.7823    7.2182 C   0  0  0  0  0  0
    4.0048   22.0390    7.3844 C   0  0  0  0  0  0
    6.5344   19.4426    6.9479 O   0  0  0  0  0  0
    5.0917   24.7143    4.8421 H   0  0  0  0  0  0
    6.1218   26.0145    4.2463 H   0  0  0  0  0  0
    6.8180   24.7429    5.2596 H   0  0  0  0  0  0
    0.7728   25.4877    9.5226 H   0  0  0  0  0  0
    0.1059   27.8821    9.2457 H   0  0  0  0  0  0
    4.4987   28.7905    6.0534 H   0  0  0  0  0  0
    3.4629   30.0405    6.6877 H   0  0  0  0  0  0
    3.7426   30.9376    8.8942 H   0  0  0  0  0  0
    3.8758   29.4446    9.8073 H   0  0  0  0  0  0
    5.3466   31.6522   10.5085 H   0  0  0  0  0  0
    5.9917   30.0291   10.7174 H   0  0  0  0  0  0
    7.6198   32.8518    7.9923 H   0  0  0  0  0  0
    6.8710   33.1353    9.6198 H   0  0  0  0  0  0
    8.2018   29.8057   10.0557 H   0  0  0  0  0  0
    8.7170   30.1591    8.3569 H   0  0  0  0  0  0
    6.7769   30.0611    6.8508 H   0  0  0  0  0  0
    5.5581   31.3443    7.0162 H   0  0  0  0  0  0
    6.8446   23.9152    7.4560 H   0  0  0  0  0  0
    7.8489   21.6955    7.1284 H   0  0  0  0  0  0
    3.9498   19.9037    7.1633 H   0  0  0  0  0  0
    2.9291   22.1253    7.4451 H   0  0  0  0  0  0
    5.8671   18.7555    6.8429 H   0  0  0  0  0  0
    5.5249   28.6780    8.2401 H   0  0  0  0  0  0
  1  2  1  0  0  0
  1 30  1  0  0  0
  1 31  1  0  0  0
  1 32  1  0  0  0
  2  3  2  0  0  0
  2  4  1  0  0  0
  4 12  1  0  0  0
  4  5  2  0  0  0
  5  6  1  0  0  0
  5 23  1  0  0  0
  6  7  1  0  0  0
  7 12  1  0  0  0
  7  8  2  0  0  0
  8  9  1  0  0  0
  8 33  1  0  0  0
  9 10  2  0  0  0
  9 34  1  0  0  0
 10 11  1  0  0  0
 10 22  1  0  0  0
 11 12  2  0  0  0
 11 13  1  0  0  0
 13 14  1  0  0  0
 13 35  1  0  0  0
 13 36  1  0  0  0
 14 21  1  0  0  0
 14 15  1  0  0  0
 14 52  1  0  0  0
 15 16  1  0  0  0
 15 37  1  0  0  0
 15 38  1  0  0  0
 16 17  1  0  0  0
 16 39  1  0  0  0
 16 40  1  0  0  0
 17 20  1  0  0  0
 17 18  1  0  0  0
 17 21  1  0  0  0
 18 19  1  0  0  0
 18 41  1  0  0  0
 18 42  1  0  0  0
 19 20  1  0  0  0
 20 43  1  0  0  0
 20 44  1  0  0  0
 21 45  1  0  0  0
 21 46  1  0  0  0
 23 28  1  0  0  0
 23 24  2  0  0  0
 24 25  1  0  0  0
 24 47  1  0  0  0
 25 26  2  0  0  0
 25 48  1  0  0  0
 26 27  1  0  0  0
 26 29  1  0  0  0
 27 28  2  0  0  0
 27 49  1  0  0  0
 28 50  1  0  0  0
 29 51  1  0  0  0
M  CHG  2  14   1  22  -1
M  END
> <s_m_source_file>
/home/yujie/leadopt/data/result/selection/PSK13/lig_26.sdf

> <i_m_source_file_index>
1

> <i_lp_mmshare_version>
51139

> <i_f3d_flags>
0

> <s_epik_input>
W2NIXTFbY0hdYyhbT0hdKVtjSF1bY0hdYzEtYyhvMiljKEMoPU8pW0NIM10pYyhjMjMpYyhjKFtPSF0pW2NIXVtjSF0zKVtDSDJdTihbQ0gyXTQpW0NIMl1bQ0gyXUM0NVtDSDJdT1tDSDJdNQ==

> <s_epik_cmdline>
J2VwaWtfcHl0aG9uJywgJy1waHQnLCAnMi4wJywgJy1waCcsICc3LjAnLCAnLXRuJywgJzgnLCAnLW1hJywgJzIwMCcsICctaW1hZScsICc8aW5maWxlLm1hZT4nLCAnLW9tYWUnLCAnPG91dGZpbGUubWFlPic=

> <r_lp_tautomer_probability>
0.99995

> <r_epik_Ionization_Penalty>
  0.2432

> <r_epik_Ionization_Penalty_Charging>
  0.2422

> <r_epik_Ionization_Penalty_Neutral>
  0.0010

> <r_epik_State_Penalty>
  0.2080

> <r_epik_Charging_Adjusted_Penalty>
0.450205

> <i_epik_Tot_Q>
0

> <i_epik_Tot_abs_Q>
2

> <s_lp_Force_Field>
OPLS3e

> <r_lp_Energy>
24.9804

> <b_lp_Chiralities_Consistent>
1

> <s_lp_Variant>
/home/yujie/leadopt/data/result/selection/PSK13/lig_26.sdf:1-1

> <s_i_glide_gridfile>
glide-grid_PSK13

> <i_i_glide_lignum>
1

> <i_i_glide_rotatable_bonds>
5

> <r_i_docking_score>
-8.91506905684047

> <r_i_glide_ligand_efficiency>
-0.307416174373809

> <r_i_glide_ligand_efficiency_sa>
-0.944479883956515

> <r_i_glide_ligand_efficiency_ln>
-2.04132474737075

> <r_i_glide_gscore>
-9.12307305684047

> <r_i_glide_lipo>
-4.24566619766719

> <r_i_glide_hbond>
-0.324606195271734

> <r_i_glide_metal>
-0

> <r_i_glide_rewards>
-1.38281199690023

> <r_i_glide_evdw>
-49.8771858215332

> <r_i_glide_ecoul>
-7.03158092498779

> <r_i_glide_erotb>
0.378607762823508

> <r_i_glide_esite>
0

> <r_i_glide_emodel>
-82.9010050624739

> <r_i_glide_energy>
-56.908766746521

> <r_i_glide_einternal>
1.51133835315704

> <i_i_glide_confnum>
41

> <i_i_glide_posenum>
383

> <r_i_glide_eff_state_penalty>
0.208004

$$$$
