/home/yujie/leadopt/data/result/selection/PSK13/lig_28.sdf:1
                    3D
 Schrodinger Suite 2020-3.
 54 58  0  0  1  0            999 V2000
    6.7760   25.5861    4.0398 C   0  0  0  0  0  0
    5.7351   25.4245    5.0456 N   0  0  0  0  0  0
    5.6444   26.1471    6.1707 C   0  0  0  0  0  0
    6.4026   27.0663    6.4778 O   0  0  0  0  0  0
    4.5574   25.7539    7.0161 C   0  0  0  0  0  0
    4.3159   24.4365    7.4595 C   0  0  0  0  0  0
    3.2185   24.3814    8.2619 O   0  0  0  0  0  0
    2.7481   25.6452    8.3764 C   0  0  0  0  0  0
    1.6269   26.0071    9.1219 C   0  0  0  0  0  0
    1.2727   27.3501    9.0964 C   0  0  0  0  0  0
    2.0199   28.2836    8.3872 C   0  0  0  0  0  0
    3.1770   27.9341    7.6659 C   0  0  0  0  0  0
    3.5343   26.5623    7.6386 C   0  0  0  0  0  0
    4.0332   29.0498    7.0632 C   0  0  0  0  0  0
    5.0965   29.5174    8.0807 N   0  3  2  0  0  0
    4.5074   30.1823    9.3421 C   0  0  0  0  0  0
    5.6855   30.8669   10.0110 C   0  0  0  0  0  0
    6.7450   31.0563    8.9141 C   0  0  0  0  0  0
    7.4288   32.4296    8.9146 C   0  0  0  0  0  0
    8.6217   31.8422    9.5993 O   0  0  0  0  0  0
    8.1331   30.4783    9.2543 C   0  0  0  0  0  0
    6.1199   30.5544    7.5985 C   0  0  0  0  0  0
    1.6243   29.5883    8.4392 O   0  0  0  0  0  0
    4.9800   23.1081    7.2500 C   0  0  0  0  0  0
    6.3637   23.0073    7.0609 C   0  0  0  0  0  0
    6.9538   21.7650    6.8420 C   0  0  0  0  0  0
    6.1653   20.6170    6.8346 C   0  0  0  0  0  0
    4.7915   20.7026    7.0411 C   0  0  0  0  0  0
    4.1994   21.9449    7.2468 C   0  0  0  0  0  0
    7.0221   24.6183    3.5994 H   0  0  0  0  0  0
    6.4261   26.2423    3.2446 H   0  0  0  0  0  0
    7.6940   26.0072    4.4584 H   0  0  0  0  0  0
    5.0021   24.7607    4.8490 H   0  0  0  0  0  0
    1.0584   25.2755    9.6752 H   0  0  0  0  0  0
    0.4017   27.6804    9.6409 H   0  0  0  0  0  0
    4.5663   28.7429    6.1638 H   0  0  0  0  0  0
    3.4599   29.9410    6.8009 H   0  0  0  0  0  0
    3.7579   30.8948    8.9914 H   0  0  0  0  0  0
    3.9995   29.4427    9.9587 H   0  0  0  0  0  0
    5.3535   31.8132   10.4415 H   0  0  0  0  0  0
    6.0443   30.2508   10.8338 H   0  0  0  0  0  0
    7.7334   32.8109    7.9388 H   0  0  0  0  0  0
    6.9845   33.2039    9.5422 H   0  0  0  0  0  0
    8.1999   29.8234   10.1212 H   0  0  0  0  0  0
    8.7307   30.1128    8.4176 H   0  0  0  0  0  0
    6.7972   30.0572    6.9020 H   0  0  0  0  0  0
    5.5571   31.3190    7.0570 H   0  0  0  0  0  0
    1.0968   29.8567    9.2215 H   0  0  0  0  0  0
    6.9899   23.8878    7.0781 H   0  0  0  0  0  0
    8.0202   21.6911    6.6878 H   0  0  0  0  0  0
    6.6213   19.6514    6.6768 H   0  0  0  0  0  0
    4.1846   19.8079    7.0341 H   0  0  0  0  0  0
    3.1303   21.9992    7.3960 H   0  0  0  0  0  0
    5.6099   28.6878    8.3573 H   0  0  0  0  0  0
  1  2  1  0  0  0
  1 30  1  0  0  0
  1 31  1  0  0  0
  1 32  1  0  0  0
  2  3  1  0  0  0
  2 33  1  0  0  0
  3  4  2  0  0  0
  3  5  1  0  0  0
  5 13  1  0  0  0
  5  6  2  0  0  0
  6  7  1  0  0  0
  6 24  1  0  0  0
  7  8  1  0  0  0
  8 13  1  0  0  0
  8  9  2  0  0  0
  9 10  1  0  0  0
  9 34  1  0  0  0
 10 11  2  0  0  0
 10 35  1  0  0  0
 11 12  1  0  0  0
 11 23  1  0  0  0
 12 13  2  0  0  0
 12 14  1  0  0  0
 14 15  1  0  0  0
 14 36  1  0  0  0
 14 37  1  0  0  0
 15 22  1  0  0  0
 15 16  1  0  0  0
 15 54  1  0  0  0
 16 17  1  0  0  0
 16 38  1  0  0  0
 16 39  1  0  0  0
 17 18  1  0  0  0
 17 40  1  0  0  0
 17 41  1  0  0  0
 18 21  1  0  0  0
 18 19  1  0  0  0
 18 22  1  0  0  0
 19 20  1  0  0  0
 19 42  1  0  0  0
 19 43  1  0  0  0
 20 21  1  0  0  0
 21 44  1  0  0  0
 21 45  1  0  0  0
 22 46  1  0  0  0
 22 47  1  0  0  0
 23 48  1  0  0  0
 24 29  1  0  0  0
 24 25  2  0  0  0
 25 26  1  0  0  0
 25 49  1  0  0  0
 26 27  2  0  0  0
 26 50  1  0  0  0
 27 28  1  0  0  0
 27 51  1  0  0  0
 28 29  2  0  0  0
 28 52  1  0  0  0
 29 53  1  0  0  0
M  CHG  1  15   1
M  END
> <s_m_source_file>
/home/yujie/leadopt/data/result/selection/PSK13/lig_28.sdf

> <i_m_source_file_index>
1

> <i_lp_mmshare_version>
51139

> <i_f3d_flags>
0

> <s_epik_input>
W2NIXTFbY0hdW2NIXVtjSF1bY0hdYzEtYyhvMiljKEMoPU8pW05IXVtDSDNdKWMoYzIzKWMoYyhbT0hdKVtjSF1bY0hdMylbQ0gyXU4oW0NIMl00KVtDSDJdW0NIMl1DNDVbQ0gyXU9bQ0gyXTU=

> <s_epik_cmdline>
J2VwaWtfcHl0aG9uJywgJy1waHQnLCAnMi4wJywgJy1waCcsICc3LjAnLCAnLXRuJywgJzgnLCAnLW1hJywgJzIwMCcsICctaW1hZScsICc8aW5maWxlLm1hZT4nLCAnLW9tYWUnLCAnPG91dGZpbGUubWFlPic=

> <r_epik_Ionization_Penalty>
  0.4849

> <r_epik_Ionization_Penalty_Charging>
  0.0621

> <r_epik_Ionization_Penalty_Neutral>
  0.4228

> <r_epik_State_Penalty>
  0.2948

> <r_epik_Charging_Adjusted_Penalty>
0.356883

> <i_epik_Tot_Q>
1

> <i_epik_Tot_abs_Q>
1

> <s_lp_Force_Field>
OPLS3e

> <r_lp_Energy>
30.8575

> <b_lp_Chiralities_Consistent>
1

> <s_lp_Variant>
/home/yujie/leadopt/data/result/selection/PSK13/lig_28.sdf:1-1

> <s_i_glide_gridfile>
glide-grid_PSK13

> <i_i_glide_lignum>
1

> <i_i_glide_rotatable_bonds>
6

> <r_i_docking_score>
-9.49735996448706

> <r_i_glide_ligand_efficiency>
-0.327495171189209

> <r_i_glide_ligand_efficiency_sa>
-1.00616892364612

> <r_i_glide_ligand_efficiency_ln>
-2.17465459959841

> <r_i_glide_gscore>
-9.79215696448706

> <r_i_glide_lipo>
-4.14240270402532

> <r_i_glide_hbond>
-0.16054006820038

> <r_i_glide_metal>
-0

> <r_i_glide_rewards>
-1.36607363705248

> <r_i_glide_evdw>
-46.1442718505859

> <r_i_glide_ecoul>
-15.4712257385254

> <r_i_glide_erotb>
0.504756898099223

> <r_i_glide_esite>
0

> <r_i_glide_emodel>
-100.42002866479

> <r_i_glide_energy>
-61.6154975891113

> <r_i_glide_einternal>
3.02018213272095

> <i_i_glide_confnum>
127

> <i_i_glide_posenum>
339

> <r_i_glide_eff_state_penalty>
0.294797

$$$$
