@<TRIPOS>MOLECULE
/home/yujie/leadopt/data/result/selection/PSK13/lig_36.sdf:1
54   58    1
SMALL
USER_CHARGES


@<TRIPOS>ATOM
      1 C1          6.7550   25.3372    3.8028 C.3       1 UNK         0.0000 
      2 N2          5.7346   25.3030    4.8384 N.am      1 UNK         0.0000 
      3 C3          5.7044   26.1391    5.8856 C.2       1 UNK         0.0000 
      4 O4          6.5022   27.0593    6.0514 O.2       1 UNK         0.0000 
      5 C5          4.6710   25.8307    6.8363 C.2       1 UNK         0.0000 
      6 C6          4.4452   24.5402    7.3670 C.2       1 UNK         0.0000 
      7 O7          3.3830   24.5394    8.2159 O.3       1 UNK         0.0000 
      8 C8          2.9353   25.8134    8.2942 C.ar      1 UNK         0.0000 
      9 C9          1.8483   26.2141    9.0702 C.ar      1 UNK         0.0000 
     10 C10         1.5547   27.5735    9.0700 C.ar      1 UNK         0.0000 
     11 C11         2.3145   28.4860    8.3460 C.ar      1 UNK         0.0000 
     12 C12         3.3936   28.0786    7.5375 C.ar      1 UNK         0.0000 
     13 C13         3.7200   26.6953    7.5107 C.ar      1 UNK         0.0000 
     14 C14         4.1253   29.1278    6.7114 C.3       1 UNK         0.0000 
     15 N15         5.3751   29.5798    7.3194 N.3       1 UNK         0.0000 
     16 C16         6.1371   30.3455    6.3548 C.3       1 UNK         0.0000 
     17 C17         7.2429   31.0559    7.1211 C.3       1 UNK         0.0000 
     18 C18         6.7022   31.0867    8.5573 C.3       1 UNK         0.0000 
     19 C19         6.8993   32.4114    9.3080 C.3       1 UNK         0.0000 
     20 O20         8.0625   31.8305   10.0383 O.3       1 UNK         0.0000 
     21 C21         7.6343   30.4682    9.6056 C.3       1 UNK         0.0000 
     22 C22         5.2842   30.4898    8.4538 C.3       1 UNK         0.0000 
     23 O23         1.9817   29.8118    8.4389 O.3       1 UNK         0.0000 
     24 C24         5.0978   23.1971    7.2006 C.ar      1 UNK         0.0000 
     25 C25         6.4949   23.0616    7.1156 C.ar      1 UNK         0.0000 
     26 C26         7.0768   21.8098    6.9290 C.ar      1 UNK         0.0000 
     27 C27         6.2818   20.6720    6.8747 C.ar      1 UNK         0.0000 
     28 C28         4.9007   20.7833    6.9872 C.ar      1 UNK         0.0000 
     29 C29         4.3090   22.0340    7.1465 C.ar      1 UNK         0.0000 
     30 F30         2.9617   22.0921    7.2435 F         1 UNK         0.0000 
     31 O31         6.8619   19.4424    6.7584 O.3       1 UNK         0.0000 
     32 F32         7.3134   24.1297    7.2418 F         1 UNK         0.0000 
     33 H33         6.6122   24.5101    3.1084 H         1 UNK         0.0000 
     34 H34         6.7085   26.2688    3.2416 H         1 UNK         0.0000 
     35 H35         7.7518   25.2493    4.2417 H         1 UNK         0.0000 
     36 H36         4.9982   24.6210    4.7456 H         1 UNK         0.0000 
     37 H37         1.2753   25.4955    9.6389 H         1 UNK         0.0000 
     38 H38         0.7156   27.9348    9.6422 H         1 UNK         0.0000 
     39 H39         4.3486   28.6769    5.7449 H         1 UNK         0.0000 
     40 H40         3.4802   29.9798    6.4877 H         1 UNK         0.0000 
     41 H41         6.5341   29.6291    5.6446 H         1 UNK         0.0000 
     42 H42         5.5205   31.0326    5.7704 H         1 UNK         0.0000 
     43 H43         8.1817   30.5091    7.0360 H         1 UNK         0.0000 
     44 H44         7.3976   32.0552    6.7111 H         1 UNK         0.0000 
     45 H45         7.2222   33.2723    8.7202 H         1 UNK         0.0000 
     46 H46         6.1339   32.6558   10.0431 H         1 UNK         0.0000 
     47 H47         7.1285   29.9882   10.4404 H         1 UNK         0.0000 
     48 H48         8.4841   29.8932    9.2355 H         1 UNK         0.0000 
     49 H49         4.5291   31.2535    8.2643 H         1 UNK         0.0000 
     50 H50         4.9489   29.9691    9.3520 H         1 UNK         0.0000 
     51 H51         1.4171   30.0512    9.1985 H         1 UNK         0.0000 
     52 H52         8.1506   21.7208    6.8656 H         1 UNK         0.0000 
     53 H53         4.2786   19.9012    6.9598 H         1 UNK         0.0000 
     54 H54         6.2156   18.7330    6.8414 H         1 UNK         0.0000 
@<TRIPOS>BOND
     1    1    2 1    
     2    1   33 1    
     3    1   34 1    
     4    1   35 1    
     5    2    3 am   BACKBONE|DICT|INTERRES
     6    2   36 1    
     7    3    4 2    
     8    3    5 1    
     9    5   13 1    
    10    5    6 2    
    11    6    7 1    
    12    6   24 1    
    13    7    8 1    
    14    8   13 ar   
    15    8    9 ar   
    16    9   10 ar   
    17    9   37 1    
    18   10   11 ar   
    19   10   38 1    
    20   11   12 ar   
    21   11   23 1    
    22   12   13 ar   
    23   12   14 1    
    24   14   15 1    
    25   14   39 1    
    26   14   40 1    
    27   15   22 1    
    28   15   16 1    
    29   16   17 1    
    30   16   41 1    
    31   16   42 1    
    32   17   18 1    
    33   17   43 1    
    34   17   44 1    
    35   18   21 1    
    36   18   19 1    
    37   18   22 1    
    38   19   20 1    
    39   19   45 1    
    40   19   46 1    
    41   20   21 1    
    42   21   47 1    
    43   21   48 1    
    44   22   49 1    
    45   22   50 1    
    46   23   51 1    
    47   24   29 ar   
    48   24   25 ar   
    49   25   26 ar   
    50   25   32 1    
    51   26   27 ar   
    52   26   52 1    
    53   27   28 ar   
    54   27   31 1    
    55   28   29 ar   
    56   28   53 1    
    57   29   30 1    
    58   31   54 1    
@<TRIPOS>SUBSTRUCTURE
     1 UNK         1 GROUP             0       ****    0 ROOT    
