/home/yujie/leadopt/data/result/selection/PSK13/lig_15.sdf:1
                    3D
 Schrodinger Suite 2020-3.
 53 56  0  0  1  0            999 V2000
    6.7579   25.6347    3.9922 C   0  0  0  0  0  0
    5.7341   25.4957    5.0169 N   0  0  0  0  0  0
    5.6953   26.2147    6.1471 C   0  0  0  0  0  0
    6.5144   27.0813    6.4389 O   0  0  0  0  0  0
    4.6021   25.8758    7.0169 C   0  0  0  0  0  0
    4.3202   24.5747    7.4812 C   0  0  0  0  0  0
    3.2354   24.5659    8.3045 O   0  0  0  0  0  0
    2.8002   25.8443    8.3981 C   0  0  0  0  0  0
    1.6908   26.2460    9.1421 C   0  0  0  0  0  0
    1.3714   27.5981    9.0974 C   0  0  0  0  0  0
    2.1323   28.5026    8.3607 C   0  0  0  0  0  0
    3.2745   28.1069    7.6404 C   0  0  0  0  0  0
    3.6085   26.7273    7.6401 C   0  0  0  0  0  0
    4.0930   29.1701    6.9050 C   0  0  0  0  0  0
    5.2239   29.6609    7.7038 N   0  0  1  0  0  0
    4.8034   30.4501    8.8759 C   0  0  0  0  0  0
    5.9996   30.9571    9.7015 C   0  0  0  0  0  0
    7.0020   31.7348    8.8360 C   0  0  0  0  0  0
    7.4156   30.9171    7.6007 C   0  0  1  0  0  0
    8.2697   29.8423    7.9462 O   0  0  0  0  0  0
    6.1802   30.3763    6.8411 C   0  0  0  0  0  0
    1.7341   29.8112    8.3609 O   0  0  0  0  0  0
    4.9326   23.2244    7.2686 C   0  0  0  0  0  0
    6.3096   23.0694    7.0716 C   0  0  0  0  0  0
    6.8464   21.8046    6.8427 C   0  0  0  0  0  0
    6.0109   20.6912    6.8381 C   0  0  0  0  0  0
    4.6431   20.8283    7.0560 C   0  0  0  0  0  0
    4.1059   22.0946    7.2684 C   0  0  0  0  0  0
    6.5343   19.4488    6.6160 O   0  0  0  0  0  0
    7.9784   31.5588    6.9227 H   0  0  0  0  0  0
    6.5110   25.0139    3.1315 H   0  0  0  0  0  0
    6.8357   26.6672    3.6528 H   0  0  0  0  0  0
    7.7301   25.3221    4.3738 H   0  0  0  0  0  0
    4.9948   24.8301    4.8474 H   0  0  0  0  0  0
    1.1033   25.5351    9.7037 H   0  0  0  0  0  0
    0.5137   27.9611    9.6425 H   0  0  0  0  0  0
    4.4497   28.7316    5.9727 H   0  0  0  0  0  0
    3.4620   30.0086    6.6038 H   0  0  0  0  0  0
    4.1849   31.2888    8.5530 H   0  0  0  0  0  0
    4.1719   29.8407    9.5230 H   0  0  0  0  0  0
    5.6253   31.6063   10.4935 H   0  0  0  0  0  0
    6.4739   30.1211   10.2162 H   0  0  0  0  0  0
    6.5497   32.6715    8.5102 H   0  0  0  0  0  0
    7.8779   32.0087    9.4251 H   0  0  0  0  0  0
    7.7283   29.1819    8.3976 H   0  0  0  0  0  0
    6.5104   29.7108    6.0423 H   0  0  0  0  0  0
    5.6577   31.2004    6.3509 H   0  0  0  0  0  0
    1.2223   30.0796    9.1505 H   0  0  0  0  0  0
    6.9692   23.9251    7.0841 H   0  0  0  0  0  0
    7.9072   21.6860    6.6788 H   0  0  0  0  0  0
    3.9951   19.9632    7.0528 H   0  0  0  0  0  0
    3.0408   22.1937    7.4235 H   0  0  0  0  0  0
    5.8375   18.7843    6.5695 H   0  0  0  0  0  0
  1  2  1  0  0  0
  1 31  1  0  0  0
  1 32  1  0  0  0
  1 33  1  0  0  0
  2  3  1  0  0  0
  2 34  1  0  0  0
  3  4  2  0  0  0
  3  5  1  0  0  0
  5 13  1  0  0  0
  5  6  2  0  0  0
  6  7  1  0  0  0
  6 23  1  0  0  0
  7  8  1  0  0  0
  8 13  1  0  0  0
  8  9  2  0  0  0
  9 10  1  0  0  0
  9 35  1  0  0  0
 10 11  2  0  0  0
 10 36  1  0  0  0
 11 12  1  0  0  0
 11 22  1  0  0  0
 12 13  2  0  0  0
 12 14  1  0  0  0
 14 15  1  0  0  0
 14 37  1  0  0  0
 14 38  1  0  0  0
 15 21  1  0  0  0
 15 16  1  0  0  0
 16 17  1  0  0  0
 16 39  1  0  0  0
 16 40  1  0  0  0
 17 18  1  0  0  0
 17 41  1  0  0  0
 17 42  1  0  0  0
 18 19  1  0  0  0
 18 43  1  0  0  0
 18 44  1  0  0  0
 19 30  1  0  0  0
 19 20  1  0  0  0
 19 21  1  0  0  0
 20 45  1  0  0  0
 21 46  1  0  0  0
 21 47  1  0  0  0
 22 48  1  0  0  0
 23 28  1  0  0  0
 23 24  2  0  0  0
 24 25  1  0  0  0
 24 49  1  0  0  0
 25 26  2  0  0  0
 25 50  1  0  0  0
 26 27  1  0  0  0
 26 29  1  0  0  0
 27 28  2  0  0  0
 27 51  1  0  0  0
 28 52  1  0  0  0
 29 53  1  0  0  0
M  END
> <s_m_source_file>
/home/yujie/leadopt/data/result/selection/PSK13/lig_15.sdf

> <i_m_source_file_index>
1

> <i_lp_mmshare_version>
51139

> <i_f3d_flags>
0

> <s_epik_input>
W2NIXTFbY0hdYyhbT0hdKVtjSF1bY0hdYzEtYyhvMiljKEMoPU8pW05IXVtDSDNdKWMoYzIzKWMoYyhbT0hdKVtjSF1bY0hdMylbQ0gyXU40W0NIMl1bQ0gyXVtDSDJdW0NAQEhdKFtPSF0pW0NIMl00

> <s_epik_cmdline>
J2VwaWtfcHl0aG9uJywgJy1waHQnLCAnMi4wJywgJy1waCcsICc3LjAnLCAnLXRuJywgJzgnLCAnLW1hJywgJzIwMCcsICctaW1hZScsICc8aW5maWxlLm1hZT4nLCAnLW9tYWUnLCAnPG91dGZpbGUubWFlPic=

> <r_epik_Ionization_Penalty>
  2.0376

> <r_epik_Ionization_Penalty_Charging>
  0.0000

> <r_epik_Ionization_Penalty_Neutral>
  2.0376

> <r_epik_State_Penalty>
  1.7253

> <r_epik_Charging_Adjusted_Penalty>
1.7253

> <i_epik_Tot_Q>
0

> <i_epik_Tot_abs_Q>
0

> <s_lp_Force_Field>
OPLS3e

> <r_lp_Energy>
31.0252

> <b_lp_Chiralities_Consistent>
1

> <s_lp_Variant>
/home/yujie/leadopt/data/result/selection/PSK13/lig_15.sdf:1-3

> <s_i_glide_gridfile>
glide-grid_PSK13

> <i_i_glide_lignum>
3

> <i_i_glide_rotatable_bonds>
8

> <r_i_docking_score>
-8.09156158216856

> <r_i_glide_ligand_efficiency>
-0.279019364902364

> <r_i_glide_ligand_efficiency_sa>
-0.857235888519523

> <r_i_glide_ligand_efficiency_ln>
-1.85276241801866

> <r_i_glide_gscore>
-9.81686158216856

> <r_i_glide_lipo>
-4.36722970568066

> <r_i_glide_hbond>
-0.702647874253564

> <r_i_glide_metal>
-0

> <r_i_glide_rewards>
-1.05466151770438

> <r_i_glide_evdw>
-48.3015518188477

> <r_i_glide_ecoul>
-11.8346576690674

> <r_i_glide_erotb>
0.497953756772544

> <r_i_glide_esite>
0

> <r_i_glide_emodel>
-93.143156510913

> <r_i_glide_energy>
-60.136209487915

> <r_i_glide_einternal>
6.57197332382202

> <i_i_glide_confnum>
173

> <i_i_glide_posenum>
234

> <r_i_glide_eff_state_penalty>
1.7253

$$$$
