/home/yujie/leadopt/data/result/selection/PSK13/lig_37.sdf:1
                    3D
 Schrodinger Suite 2020-3.
 57 61  0  0  1  0            999 V2000
    6.7626   25.6100    3.9841 C   0  0  0  0  0  0
    5.7329   25.4962    5.0087 N   0  0  0  0  0  0
    5.7242   26.2037    6.1464 C   0  0  0  0  0  0
    6.5874   27.0231    6.4429 O   0  0  0  0  0  0
    4.6319   25.8894    7.0304 C   0  0  0  0  0  0
    4.3475   24.5972    7.5190 C   0  0  0  0  0  0
    3.2792   24.6060    8.3649 O   0  0  0  0  0  0
    2.8433   25.8871    8.4410 C   0  0  0  0  0  0
    1.7346   26.3040    9.1815 C   0  0  0  0  0  0
    1.4122   27.6549    9.1051 C   0  0  0  0  0  0
    2.1594   28.5426    8.3310 C   0  0  0  0  0  0
    3.2835   28.1279    7.5914 C   0  0  0  0  0  0
    3.6353   26.7520    7.6399 C   0  0  0  0  0  0
    4.0241   29.1518    6.7295 C   0  0  0  0  0  0
    5.2883   29.5956    7.3117 N   0  0  1  0  0  0
    6.1186   30.2620    6.3211 C   0  0  0  0  0  0
    7.2252   30.9731    7.0962 C   0  0  0  0  0  0
    6.6529   31.0955    8.5176 C   0  0  0  0  0  0
    6.9075   32.4304    9.2375 C   0  0  0  0  0  0
    7.9976   31.8028   10.0356 O   0  0  0  0  0  0
    7.5137   30.4572    9.6155 C   0  0  0  0  0  0
    5.2112   30.5702    8.3931 C   0  0  0  0  0  0
    1.7445   29.8448    8.2936 O   0  0  0  0  0  0
    4.9547   23.2453    7.3090 C   0  0  0  0  0  0
    4.1324   22.1129    7.3047 C   0  0  0  0  0  0
    4.6726   20.8476    7.0732 C   0  0  0  0  0  0
    6.0391   20.6991    6.8423 C   0  0  0  0  0  0
    6.8778   21.8220    6.8576 C   0  0  0  0  0  0
    6.3302   23.0854    7.1046 C   0  0  0  0  0  0
    8.3752   21.6859    6.6316 C   0  0  0  0  0  0
    6.5343   19.4445    6.6053 O   0  0  0  0  0  0
    6.5105   24.9881    3.1252 H   0  0  0  0  0  0
    6.8588   26.6418    3.6417 H   0  0  0  0  0  0
    7.7277   25.2807    4.3740 H   0  0  0  0  0  0
    4.9715   24.8560    4.8349 H   0  0  0  0  0  0
    1.1563   25.6063    9.7679 H   0  0  0  0  0  0
    0.5510   28.0271    9.6423 H   0  0  0  0  0  0
    4.2264   28.6738    5.7705 H   0  0  0  0  0  0
    3.3941   30.0124    6.4990 H   0  0  0  0  0  0
    6.5151   29.5026    5.6471 H   0  0  0  0  0  0
    5.5501   30.9421    5.6792 H   0  0  0  0  0  0
    8.1470   30.3911    7.0639 H   0  0  0  0  0  0
    7.4296   31.9472    6.6473 H   0  0  0  0  0  0
    7.3176   33.2467    8.6395 H   0  0  0  0  0  0
    6.1344   32.7530    9.9381 H   0  0  0  0  0  0
    6.9582   30.0176   10.4412 H   0  0  0  0  0  0
    8.3513   29.8407    9.2945 H   0  0  0  0  0  0
    4.5040   31.3573    8.1326 H   0  0  0  0  0  0
    4.8125   30.1248    9.3051 H   0  0  0  0  0  0
    1.2574   30.1243    9.0946 H   0  0  0  0  0  0
    3.0685   22.2070    7.4706 H   0  0  0  0  0  0
    4.0220   19.9845    7.0665 H   0  0  0  0  0  0
    6.9810   23.9468    7.1318 H   0  0  0  0  0  0
    8.8929   22.6437    6.6932 H   0  0  0  0  0  0
    8.5691   21.2537    5.6500 H   0  0  0  0  0  0
    8.8086   21.0160    7.3754 H   0  0  0  0  0  0
    5.8221   18.7930    6.5722 H   0  0  0  0  0  0
  1  2  1  0  0  0
  1 32  1  0  0  0
  1 33  1  0  0  0
  1 34  1  0  0  0
  2  3  1  0  0  0
  2 35  1  0  0  0
  3  4  2  0  0  0
  3  5  1  0  0  0
  5 13  1  0  0  0
  5  6  2  0  0  0
  6  7  1  0  0  0
  6 24  1  0  0  0
  7  8  1  0  0  0
  8 13  1  0  0  0
  8  9  2  0  0  0
  9 10  1  0  0  0
  9 36  1  0  0  0
 10 11  2  0  0  0
 10 37  1  0  0  0
 11 12  1  0  0  0
 11 23  1  0  0  0
 12 13  2  0  0  0
 12 14  1  0  0  0
 14 15  1  0  0  0
 14 38  1  0  0  0
 14 39  1  0  0  0
 15 22  1  0  0  0
 15 16  1  0  0  0
 16 17  1  0  0  0
 16 40  1  0  0  0
 16 41  1  0  0  0
 17 18  1  0  0  0
 17 42  1  0  0  0
 17 43  1  0  0  0
 18 21  1  0  0  0
 18 19  1  0  0  0
 18 22  1  0  0  0
 19 20  1  0  0  0
 19 44  1  0  0  0
 19 45  1  0  0  0
 20 21  1  0  0  0
 21 46  1  0  0  0
 21 47  1  0  0  0
 22 48  1  0  0  0
 22 49  1  0  0  0
 23 50  1  0  0  0
 24 29  1  0  0  0
 24 25  2  0  0  0
 25 26  1  0  0  0
 25 51  1  0  0  0
 26 27  2  0  0  0
 26 52  1  0  0  0
 27 28  1  0  0  0
 27 31  1  0  0  0
 28 29  2  0  0  0
 28 30  1  0  0  0
 29 53  1  0  0  0
 30 54  1  0  0  0
 30 55  1  0  0  0
 30 56  1  0  0  0
 31 57  1  0  0  0
M  END
> <s_m_source_file>
/home/yujie/leadopt/data/result/selection/PSK13/lig_37.sdf

> <i_m_source_file_index>
1

> <i_lp_mmshare_version>
51139

> <i_f3d_flags>
0

> <s_epik_input>
W2NIXTFjKFtDSDNdKWMoW09IXSlbY0hdW2NIXWMxLWMobzIpYyhDKD1PKVtOSF1bQ0gzXSljKGMyMyljKGMoW09IXSlbY0hdW2NIXTMpW0NIMl1OKFtDSDJdNClbQ0gyXVtDSDJdQzQ1W0NIMl1PW0NIMl01

> <s_epik_cmdline>
J2VwaWtfcHl0aG9uJywgJy1waHQnLCAnMi4wJywgJy1waCcsICc3LjAnLCAnLXRuJywgJzgnLCAnLW1hJywgJzIwMCcsICctaW1hZScsICc8aW5maWxlLm1hZT4nLCAnLW9tYWUnLCAnPG91dGZpbGUubWFlPic=

> <r_epik_Ionization_Penalty>
  1.4187

> <r_epik_Ionization_Penalty_Charging>
  0.0000

> <r_epik_Ionization_Penalty_Neutral>
  1.4187

> <r_epik_State_Penalty>
  1.8682

> <r_epik_Charging_Adjusted_Penalty>
1.86819

> <i_epik_Tot_Q>
0

> <i_epik_Tot_abs_Q>
0

> <s_lp_Force_Field>
OPLS3e

> <r_lp_Energy>
27.2439

> <b_lp_Chiralities_Consistent>
1

> <s_lp_Variant>
/home/yujie/leadopt/data/result/selection/PSK13/lig_37.sdf:1-3

> <s_i_glide_gridfile>
glide-grid_PSK13

> <i_i_glide_lignum>
3

> <i_i_glide_rotatable_bonds>
7

> <r_i_docking_score>
-7.46960841199966

> <r_i_glide_ligand_efficiency>
-0.240955110064505

> <r_i_glide_ligand_efficiency_sa>
-0.756931719985044

> <r_i_glide_ligand_efficiency_ln>
-1.68462561291198

> <r_i_glide_gscore>
-9.33779841199966

> <r_i_glide_lipo>
-4.54279994104193

> <r_i_glide_hbond>
-0.481368863250821

> <r_i_glide_metal>
-0

> <r_i_glide_rewards>
-0.927382969136739

> <r_i_glide_evdw>
-46.9336776733398

> <r_i_glide_ecoul>
-9.8902759552002

> <r_i_glide_erotb>
0.443978638376849

> <r_i_glide_esite>
0

> <r_i_glide_emodel>
-88.3020851724201

> <r_i_glide_energy>
-56.82395362854

> <r_i_glide_einternal>
3.48735046386719

> <i_i_glide_confnum>
133

> <i_i_glide_posenum>
316

> <r_i_glide_eff_state_penalty>
1.86819

$$$$
