@<TRIPOS>MOLECULE
/home/yujie/leadopt/data/result/selection/PSK13/lig_19.sdf:1
54   58    1
SMALL
USER_CHARGES


@<TRIPOS>ATOM
      1 C1          6.7536   25.6377    4.0678 C.3       1 UNK         0.0000 
      2 N2          5.7217   25.5198    5.0904 N.am      1 UNK         0.0000 
      3 C3          5.7958   26.0403    6.3205 C.2       1 UNK         0.0000 
      4 O4          6.7483   26.6839    6.7525 O.2       1 UNK         0.0000 
      5 C5          4.6568   25.7577    7.1391 C.2       1 UNK         0.0000 
      6 C6          4.3057   24.4838    7.6061 C.2       1 UNK         0.0000 
      7 O7          3.1820   24.5228    8.3786 O.3       1 UNK         0.0000 
      8 C8          2.7731   25.8169    8.4046 C.ar      1 UNK         0.0000 
      9 C9          1.6424   26.2949    9.0692 C.ar      1 UNK         0.0000 
     10 C10         1.3731   27.6552    8.9292 C.ar      1 UNK         0.0000 
     11 C11         2.1902   28.4924    8.1679 C.ar      1 UNK         0.0000 
     12 C12         3.3451   28.0143    7.5257 C.ar      1 UNK         0.0000 
     13 C13         3.6361   26.6388    7.6407 C.ar      1 UNK         0.0000 
     14 C14         4.2144   28.9475    6.6971 C.3       1 UNK         0.0000 
     15 N15         5.5795   29.2365    7.3445 N.4       1 UNK         0.0000 
     16 C16         6.5337   29.8432    6.3203 C.3       1 UNK         0.0000 
     17 C17         7.6215   30.5011    7.1425 C.3       1 UNK         0.0000 
     18 C18         7.0032   30.8526    8.4968 C.3       1 UNK         0.0000 
     19 C19         7.0809   32.3351    8.8863 C.3       1 UNK         0.0000 
     20 C20         8.2367   31.9507    9.8029 C.3       1 UNK         0.0000 
     21 O21         7.8951   30.5162    9.6404 O.3       1 UNK         0.0000 
     22 C22         5.5914   30.2270    8.5252 C.3       1 UNK         0.0000 
     23 O23         1.8503   29.7016    8.0415 O.co2     1 UNK         0.0000 
     24 C24         4.9069   23.1342    7.4102 C.ar      1 UNK         0.0000 
     25 C25         4.0793   22.0099    7.3383 C.ar      1 UNK         0.0000 
     26 C26         4.6267   20.7629    7.0560 C.ar      1 UNK         0.0000 
     27 C27         5.9976   20.6512    6.8426 C.ar      1 UNK         0.0000 
     28 C28         6.8334   21.7548    6.9458 C.ar      1 UNK         0.0000 
     29 C29         6.2889   22.9951    7.2466 C.ar      1 UNK         0.0000 
     30 O30         6.5338   19.4430    6.5224 O.3       1 UNK         0.0000 
     31 H31         7.0084   24.6516    3.6789 H         1 UNK         0.0000 
     32 H32         6.3824   26.2425    3.2419 H         1 UNK         0.0000 
     33 H33         7.6694   26.1007    4.4412 H         1 UNK         0.0000 
     34 H34         4.8688   25.0425    4.8388 H         1 UNK         0.0000 
     35 H35         1.0034   25.6393    9.6416 H         1 UNK         0.0000 
     36 H36         0.5075   28.0846    9.4133 H         1 UNK         0.0000 
     37 H37         4.4552   28.4828    5.7389 H         1 UNK         0.0000 
     38 H38         3.7682   29.9207    6.4806 H         1 UNK         0.0000 
     39 H39         6.8689   29.0414    5.6591 H         1 UNK         0.0000 
     40 H40         5.9426   30.5691    5.7564 H         1 UNK         0.0000 
     41 H41         8.4701   29.8306    7.2850 H         1 UNK         0.0000 
     42 H42         8.0255   31.3761    6.6319 H         1 UNK         0.0000 
     43 H43         7.3340   33.0210    8.0787 H         1 UNK         0.0000 
     44 H44         6.2010   32.6947    9.4180 H         1 UNK         0.0000 
     45 H45         9.2422   32.1129    9.4220 H         1 UNK         0.0000 
     46 H46         8.1391   32.2420   10.8406 H         1 UNK         0.0000 
     47 H47         4.8046   30.9583    8.3280 H         1 UNK         0.0000 
     48 H48         5.3479   29.6721    9.4319 H         1 UNK         0.0000 
     49 H49         3.0107   22.1043    7.4700 H         1 UNK         0.0000 
     50 H50         3.9852   19.8966    6.9820 H         1 UNK         0.0000 
     51 H51         7.8974   21.6501    6.7912 H         1 UNK         0.0000 
     52 H52         6.9501   23.8446    7.3273 H         1 UNK         0.0000 
     53 H53         5.8407   18.7766    6.4414 H         1 UNK         0.0000 
     54 H54         5.9750   28.3515    7.6522 H         1 UNK         0.0000 
@<TRIPOS>BOND
     1    1    2 1    
     2    1   31 1    
     3    1   32 1    
     4    1   33 1    
     5    2    3 am   BACKBONE|DICT|INTERRES
     6    2   34 1    
     7    3    4 2    
     8    3    5 1    
     9    5   13 1    
    10    5    6 2    
    11    6    7 1    
    12    6   24 1    
    13    7    8 1    
    14    8   13 ar   
    15    8    9 ar   
    16    9   10 ar   
    17    9   35 1    
    18   10   11 ar   
    19   10   36 1    
    20   11   12 ar   
    21   11   23 1    
    22   12   13 ar   
    23   12   14 1    
    24   14   15 1    
    25   14   37 1    
    26   14   38 1    
    27   15   22 1    
    28   15   16 1    
    29   15   54 1    
    30   16   17 1    
    31   16   39 1    
    32   16   40 1    
    33   17   18 1    
    34   17   41 1    
    35   17   42 1    
    36   18   21 1    
    37   18   19 1    
    38   18   22 1    
    39   19   20 1    
    40   19   43 1    
    41   19   44 1    
    42   20   21 1    
    43   20   45 1    
    44   20   46 1    
    45   22   47 1    
    46   22   48 1    
    47   24   29 ar   
    48   24   25 ar   
    49   25   26 ar   
    50   25   49 1    
    51   26   27 ar   
    52   26   50 1    
    53   27   28 ar   
    54   27   30 1    
    55   28   29 ar   
    56   28   51 1    
    57   29   52 1    
    58   30   53 1    
@<TRIPOS>SUBSTRUCTURE
     1 UNK         1 GROUP             0       ****    0 ROOT    
