@<TRIPOS>MOLECULE
/home/yujie/leadopt/data/result/selection/PSK13/lig_44.sdf:1
56   60    1
SMALL
USER_CHARGES


@<TRIPOS>ATOM
      1 O1          6.9932   19.4545    7.0624 O.3       1 UNK         0.0000 
      2 C2          6.3468   20.6489    7.2342 C.ar      1 UNK         0.0000 
      3 C3          4.9684   20.6840    7.4479 C.ar      1 UNK         0.0000 
      4 C4          4.3316   21.9101    7.6404 C.ar      1 UNK         0.0000 
      5 C5          5.1019   23.0798    7.6350 C.ar      1 UNK         0.0000 
      6 N6          6.4551   23.0523    7.4885 N.ar      1 UNK         0.0000 
      7 C7          7.0515   21.8558    7.2416 C.ar      1 UNK         0.0000 
      8 C8          4.4460   24.4257    7.6836 C.2       1 UNK         0.0000 
      9 O9          3.2754   24.4365    8.3781 O.3       1 UNK         0.0000 
     10 C10         2.8128   25.7081    8.3600 C.ar      1 UNK         0.0000 
     11 C11         1.6297   26.1292    8.9697 C.ar      1 UNK         0.0000 
     12 C12         1.2902   27.4691    8.8211 C.ar      1 UNK         0.0000 
     13 C13         2.1100   28.3534    8.1270 C.ar      1 UNK         0.0000 
     14 C14         3.3268   27.9389    7.5496 C.ar      1 UNK         0.0000 
     15 C15         3.6753   26.5639    7.6410 C.ar      1 UNK         0.0000 
     16 C16         4.7443   25.7043    7.1668 C.2       1 UNK         0.0000 
     17 C17         5.9089   26.0475    6.3910 C.2       1 UNK         0.0000 
     18 O18         6.6225   26.9900    6.7261 O.2       1 UNK         0.0000 
     19 N19         6.1357   25.3512    5.2588 N.am      1 UNK         0.0000 
     20 C20         5.6046   24.0859    4.6811 C.3       1 UNK         0.0000 
     21 C21         6.4522   24.3943    3.4569 C.3       1 UNK         0.0000 
     22 F22         5.7340   24.6418    2.3748 F         1 UNK         0.0000 
     23 C23         7.0871   25.6072    4.1511 C.3       1 UNK         0.0000 
     24 C24         4.2167   28.9823    6.8859 C.3       1 UNK         0.0000 
     25 N25         5.3309   29.5038    7.8265 N.4       1 UNK         0.0000 
     26 C26         4.7342   30.2592    9.0450 C.3       1 UNK         0.0000 
     27 C27         5.8707   30.7558    9.9548 C.3       1 UNK         0.0000 
     28 C28         6.9155   31.5867    9.1866 C.3       1 UNK         0.0000 
     29 C29         7.4453   30.8314    7.9542 C.3       1 UNK         0.0000 
     30 C30         6.3070   30.3911    7.0225 C.3       1 UNK         0.0000 
     31 O31         1.7036   29.6597    8.0419 O.3       1 UNK         0.0000 
     32 H32         7.9483   19.5340    7.0539 H         1 UNK         0.0000 
     33 H33         4.3943   19.7709    7.4542 H         1 UNK         0.0000 
     34 H34         3.2582   21.9473    7.7566 H         1 UNK         0.0000 
     35 H35         8.1221   21.8796    7.1017 H         1 UNK         0.0000 
     36 H36         1.0000   25.4432    9.5142 H         1 UNK         0.0000 
     37 H37         0.3649   27.8333    9.2417 H         1 UNK         0.0000 
     38 H38         5.8833   23.1703    5.1875 H         1 UNK         0.0000 
     39 H39         4.5341   24.1232    4.5041 H         1 UNK         0.0000 
     40 H40         7.1658   23.6098    3.2026 H         1 UNK         0.0000 
     41 H41         6.8973   26.5532    3.6424 H         1 UNK         0.0000 
     42 H42         8.1294   25.4989    4.4496 H         1 UNK         0.0000 
     43 H43         4.7063   28.5750    6.0009 H         1 UNK         0.0000 
     44 H44         3.6694   29.8692    6.5595 H         1 UNK         0.0000 
     45 H45         4.1292   31.0758    8.6521 H         1 UNK         0.0000 
     46 H46         4.0797   29.5761    9.5871 H         1 UNK         0.0000 
     47 H47         5.4438   31.3567   10.7599 H         1 UNK         0.0000 
     48 H48         6.3479   29.9022   10.4389 H         1 UNK         0.0000 
     49 H49         7.7418   31.8491    9.8491 H         1 UNK         0.0000 
     50 H50         6.4730   32.5346    8.8717 H         1 UNK         0.0000 
     51 H51         8.0117   29.9545    8.2735 H         1 UNK         0.0000 
     52 H52         8.1402   31.4593    7.3985 H         1 UNK         0.0000 
     53 H53         6.6798   29.7881    6.1936 H         1 UNK         0.0000 
     54 H54         5.7384   31.2370    6.6330 H         1 UNK         0.0000 
     55 H55         1.1744   29.9473    8.8034 H         1 UNK         0.0000 
     56 H56         5.8615   28.7095    8.1697 H         1 UNK         0.0000 
@<TRIPOS>BOND
     1    1    2 1    
     2    1   32 1    
     3    2    7 ar   
     4    2    3 ar   
     5    3    4 ar   
     6    3   33 1    
     7    4    5 ar   
     8    4   34 1    
     9    5    6 ar   
    10    5    8 1    
    11    6    7 ar   
    12    7   35 1    
    13    8   16 2    
    14    8    9 1    
    15    9   10 1    
    16   10   15 ar   
    17   10   11 ar   
    18   11   12 ar   
    19   11   36 1    
    20   12   13 ar   
    21   12   37 1    
    22   13   14 ar   
    23   13   31 1    
    24   14   15 ar   
    25   14   24 1    
    26   15   16 1    
    27   16   17 1    
    28   17   18 2    
    29   17   19 am   BACKBONE|DICT|INTERRES
    30   19   23 1    
    31   19   20 1    
    32   20   21 1    
    33   20   38 1    
    34   20   39 1    
    35   21   22 1    
    36   21   23 1    
    37   21   40 1    
    38   23   41 1    
    39   23   42 1    
    40   24   25 1    
    41   24   43 1    
    42   24   44 1    
    43   25   30 1    
    44   25   26 1    
    45   25   56 1    
    46   26   27 1    
    47   26   45 1    
    48   26   46 1    
    49   27   28 1    
    50   27   47 1    
    51   27   48 1    
    52   28   29 1    
    53   28   49 1    
    54   28   50 1    
    55   29   30 1    
    56   29   51 1    
    57   29   52 1    
    58   30   53 1    
    59   30   54 1    
    60   31   55 1    
@<TRIPOS>SUBSTRUCTURE
     1 UNK         1 GROUP             0       ****    0 ROOT    
