/home/yujie/leadopt/data/result/selection/PSK13/lig_39.sdf:1
                    3D
 Schrodinger Suite 2020-3.
 55 59  0  0  1  0            999 V2000
    6.5319   19.4426    6.9473 O   0  0  0  0  0  0
    5.9839   20.6828    7.1107 C   0  0  0  0  0  0
    6.8187   21.7880    7.2412 C   0  0  0  0  0  0
    6.2690   23.0502    7.4431 C   0  0  0  0  0  0
    4.8810   23.2161    7.4414 C   0  0  0  0  0  0
    4.0498   22.0970    7.3152 C   0  0  0  0  0  0
    4.6005   20.8285    7.1571 C   0  0  0  0  0  0
    4.2667   24.5750    7.5359 C   0  0  0  0  0  0
    3.1115   24.6075    8.2595 O   0  0  0  0  0  0
    2.6869   25.8939    8.2708 C   0  0  0  0  0  0
    1.5374   26.3507    8.9178 C   0  0  0  0  0  0
    1.2560   27.7095    8.8062 C   0  0  0  0  0  0
    2.0822   28.5698    8.0855 C   0  0  0  0  0  0
    3.2517   28.1128    7.4485 C   0  0  0  0  0  0
    3.5606   26.7292    7.5368 C   0  0  0  0  0  0
    4.6113   25.8543    7.0563 C   0  0  0  0  0  0
    5.8026   26.1998    6.3197 C   0  0  0  0  0  0
    6.5505   27.0737    6.7545 O   0  0  0  0  0  0
    6.0233   25.6036    5.1295 N   0  0  0  0  0  0
    6.9765   25.9666    4.0563 C   0  0  0  0  0  0
    6.3272   24.8340    3.2422 C   0  0  0  0  0  0
    5.6336   24.3119    4.5120 C   0  0  0  0  0  0
    4.1618   29.1207    6.7619 C   0  0  0  0  0  0
    5.3148   29.4418    7.7130 N   0  3  0  0  0  0
    6.1785   30.6632    7.3833 C   0  0  0  0  0  0
    7.1351   30.8622    8.5680 C   0  0  0  0  0  0
    8.1644   29.9002    8.6585 O   0  0  0  0  0  0
    7.4185   32.2625    9.0430 C   0  0  0  0  0  0
    6.5125   31.3605    9.8519 C   0  0  0  0  0  0
    1.7345   29.8941    8.0417 O   0  0  0  0  0  0
    5.8566   18.7633    6.8418 H   0  0  0  0  0  0
    7.8911   21.6616    7.2132 H   0  0  0  0  0  0
    6.9259   23.9008    7.5527 H   0  0  0  0  0  0
    2.9747   22.2076    7.3194 H   0  0  0  0  0  0
    3.9535   19.9685    7.0559 H   0  0  0  0  0  0
    0.8984   25.6786    9.4726 H   0  0  0  0  0  0
    0.3763   28.1119    9.2880 H   0  0  0  0  0  0
    6.7337   26.9738    3.7185 H   0  0  0  0  0  0
    7.9978   25.8424    4.4186 H   0  0  0  0  0  0
    7.0789   24.1303    2.8826 H   0  0  0  0  0  0
    5.6226   25.2116    2.5000 H   0  0  0  0  0  0
    6.1008   23.4791    5.0299 H   0  0  0  0  0  0
    4.5497   24.2488    4.4846 H   0  0  0  0  0  0
    4.6077   28.7539    5.8362 H   0  0  0  0  0  0
    3.6783   30.0759    6.5492 H   0  0  0  0  0  0
    4.9121   29.5819    8.6299 H   0  0  0  0  0  0
    6.6905   30.4388    6.4468 H   0  0  0  0  0  0
    5.4839   31.4949    7.2488 H   0  0  0  0  0  0
    7.8079   29.0995    9.0718 H   0  0  0  0  0  0
    8.3491   32.5146    9.5490 H   0  0  0  0  0  0
    6.9346   33.1209    8.5778 H   0  0  0  0  0  0
    5.4698   31.6820    9.9017 H   0  0  0  0  0  0
    6.9046   31.0429   10.8171 H   0  0  0  0  0  0
    1.3137   30.1872    8.8740 H   0  0  0  0  0  0
    5.9099   28.6188    7.7608 H   0  0  0  0  0  0
  1  2  1  0  0  0
  1 31  1  0  0  0
  2  7  1  0  0  0
  2  3  2  0  0  0
  3  4  1  0  0  0
  3 32  1  0  0  0
  4  5  2  0  0  0
  4 33  1  0  0  0
  5  6  1  0  0  0
  5  8  1  0  0  0
  6  7  2  0  0  0
  6 34  1  0  0  0
  7 35  1  0  0  0
  8 16  2  0  0  0
  8  9  1  0  0  0
  9 10  1  0  0  0
 10 15  2  0  0  0
 10 11  1  0  0  0
 11 12  2  0  0  0
 11 36  1  0  0  0
 12 13  1  0  0  0
 12 37  1  0  0  0
 13 14  2  0  0  0
 13 30  1  0  0  0
 14 15  1  0  0  0
 14 23  1  0  0  0
 15 16  1  0  0  0
 16 17  1  0  0  0
 17 18  2  0  0  0
 17 19  1  0  0  0
 19 22  1  0  0  0
 19 20  1  0  0  0
 20 21  1  0  0  0
 20 38  1  0  0  0
 20 39  1  0  0  0
 21 22  1  0  0  0
 21 40  1  0  0  0
 21 41  1  0  0  0
 22 42  1  0  0  0
 22 43  1  0  0  0
 23 24  1  0  0  0
 23 44  1  0  0  0
 23 45  1  0  0  0
 24 25  1  0  0  0
 24 46  1  0  0  0
 24 55  1  0  0  0
 25 26  1  0  0  0
 25 47  1  0  0  0
 25 48  1  0  0  0
 26 29  1  0  0  0
 26 27  1  0  0  0
 26 28  1  0  0  0
 27 49  1  0  0  0
 28 29  1  0  0  0
 28 50  1  0  0  0
 28 51  1  0  0  0
 29 52  1  0  0  0
 29 53  1  0  0  0
 30 54  1  0  0  0
M  CHG  1  24   1
M  END
> <s_m_source_file>
/home/yujie/leadopt/data/result/selection/PSK13/lig_39.sdf

> <i_m_source_file_index>
1

> <i_lp_mmshare_version>
51139

> <i_f3d_flags>
0

> <s_epik_input>
W09IXWMxW2NIXVtjSF1jKFtjSF1bY0hdMSktYyhvMiljKEMoPU8pTjNbQ0gyXVtDSDJdW0NIMl0zKWMoYzI0KWMoYyhbT0hdKVtjSF1bY0hdNClbQ0gyXVtOSF1bQ0gyXUM1KFtPSF0pW0NIMl1bQ0gyXTU=

> <s_epik_cmdline>
J2VwaWtfcHl0aG9uJywgJy1waHQnLCAnMi4wJywgJy1waCcsICc3LjAnLCAnLXRuJywgJzgnLCAnLW1hJywgJzIwMCcsICctaW1hZScsICc8aW5maWxlLm1hZT4nLCAnLW9tYWUnLCAnPG91dGZpbGUubWFlPic=

> <r_lp_tautomer_probability>
1

> <r_epik_Ionization_Penalty>
  0.1801

> <r_epik_Ionization_Penalty_Charging>
  0.0112

> <r_epik_Ionization_Penalty_Neutral>
  0.1690

> <r_epik_State_Penalty>
  0.1639

> <r_epik_Charging_Adjusted_Penalty>
0.175085

> <i_epik_Tot_Q>
1

> <i_epik_Tot_abs_Q>
1

> <s_lp_Force_Field>
OPLS3e

> <r_lp_Energy>
28.5005

> <b_lp_Chiralities_Consistent>
1

> <s_lp_Variant>
/home/yujie/leadopt/data/result/selection/PSK13/lig_39.sdf:1-1

> <s_i_glide_gridfile>
glide-grid_PSK13

> <i_i_glide_lignum>
1

> <i_i_glide_rotatable_bonds>
10

> <r_i_docking_score>
-10.7148471082881

> <r_i_glide_ligand_efficiency>
-0.35716157027627

> <r_i_glide_ligand_efficiency_sa>
-1.10978403978175

> <r_i_glide_ligand_efficiency_ln>
-2.43453001061305

> <r_i_glide_gscore>
-10.8787731082881

> <r_i_glide_lipo>
-4.71488842364413

> <r_i_glide_hbond>
-0.72

> <r_i_glide_metal>
-0

> <r_i_glide_rewards>
-1.41445673054924

> <r_i_glide_evdw>
-44.3139038085938

> <r_i_glide_ecoul>
-17.5725650787354

> <r_i_glide_erotb>
0.822151998145254

> <r_i_glide_esite>
0

> <r_i_glide_emodel>
-108.509548934935

> <r_i_glide_energy>
-61.8864688873291

> <r_i_glide_einternal>
6.11943387985229

> <i_i_glide_confnum>
126

> <i_i_glide_posenum>
348

> <r_i_glide_eff_state_penalty>
0.163926

$$$$
