@<TRIPOS>MOLECULE
/home/yujie/leadopt/data/result/selection/PSK13/lig_38.sdf:1
58   62    1
SMALL
USER_CHARGES


@<TRIPOS>ATOM
      1 C1          6.8412   25.5290    3.7223 C.3       1 UNK         0.0000 
      2 N2          5.8407   25.4099    4.7756 N.am      1 UNK         0.0000 
      3 C3          5.7756   26.2157    5.8445 C.2       1 UNK         0.0000 
      4 O4          6.5268   27.1662    6.0436 O.2       1 UNK         0.0000 
      5 C5          4.7299   25.8758    6.7627 C.2       1 UNK         0.0000 
      6 C6          4.5356   24.5828    7.3134 C.2       1 UNK         0.0000 
      7 O7          3.4838   24.5919    8.1780 O.3       1 UNK         0.0000 
      8 C8          2.9807   25.8530    8.2036 C.ar      1 UNK         0.0000 
      9 C9          1.8884   26.2542    8.9785 C.ar      1 UNK         0.0000 
     10 C10         1.5222   27.5958    8.9029 C.ar      1 UNK         0.0000 
     11 C11         2.2116   28.4929    8.0894 C.ar      1 UNK         0.0000 
     12 C12         3.3260   28.0964    7.3248 C.ar      1 UNK         0.0000 
     13 C13         3.7239   26.7273    7.3748 C.ar      1 UNK         0.0000 
     14 C14         4.0055   29.1547    6.4603 C.3       1 UNK         0.0000 
     15 N15         4.7908   30.2407    7.2321 N.4       1 UNK         0.0000 
     16 C16         5.6378   31.0956    6.2812 C.3       1 UNK         0.0000 
     17 C17         6.6200   31.8032    7.1990 C.3       1 UNK         0.0000 
     18 C18         6.9578   30.7767    8.2830 C.3       1 UNK         0.0000 
     19 C19         7.3425   31.3873    9.6413 C.3       1 UNK         0.0000 
     20 O20         8.7629   30.9697    9.4601 O.3       1 UNK         0.0000 
     21 C21         8.3886   30.1946    8.2455 C.3       1 UNK         0.0000 
     22 C22         5.8010   29.7469    8.2882 C.3       1 UNK         0.0000 
     23 O23         1.7721   29.7925    8.0429 O.3       1 UNK         0.0000 
     24 C24         5.2624   23.2519    7.1885 C.ar      1 UNK         0.0000 
     25 C25         6.6573   23.3048    7.0263 C.ar      1 UNK         0.0000 
     26 C26         7.4206   22.1493    6.8593 C.ar      1 UNK         0.0000 
     27 C27         6.8108   20.9014    6.9019 C.ar      1 UNK         0.0000 
     28 C28         5.4357   20.8145    7.0841 C.ar      1 UNK         0.0000 
     29 C29         4.6543   21.9698    7.2226 C.ar      1 UNK         0.0000 
     30 C30         3.1596   21.7453    7.3968 C.3       1 UNK         0.0000 
     31 O31         7.5613   19.7587    6.8217 O.3       1 UNK         0.0000 
     32 H32         6.8857   26.5495    3.3464 H         1 UNK         0.0000 
     33 H33         7.8324   25.2752    4.1062 H         1 UNK         0.0000 
     34 H34         6.6090   24.8652    2.8843 H         1 UNK         0.0000 
     35 H35         5.1789   24.6521    4.7048 H         1 UNK         0.0000 
     36 H36         1.3595   25.5530    9.6084 H         1 UNK         0.0000 
     37 H37         0.6818   27.9516    9.4835 H         1 UNK         0.0000 
     38 H38         4.6674   28.7237    5.7124 H         1 UNK         0.0000 
     39 H39         3.2610   29.7478    5.9227 H         1 UNK         0.0000 
     40 H40         6.1343   30.3699    5.6424 H         1 UNK         0.0000 
     41 H41         4.9880   31.7278    5.6744 H         1 UNK         0.0000 
     42 H42         7.4939   32.1694    6.6578 H         1 UNK         0.0000 
     43 H43         6.1326   32.6663    7.6432 H         1 UNK         0.0000 
     44 H44         7.2931   32.4750    9.7171 H         1 UNK         0.0000 
     45 H45         6.9349   30.8872   10.5189 H         1 UNK         0.0000 
     46 H46         8.4936   29.1337    8.4835 H         1 UNK         0.0000 
     47 H47         9.0347   30.4982    7.4174 H         1 UNK         0.0000 
     48 H48         5.2538   29.6641    9.2293 H         1 UNK         0.0000 
     49 H49         6.1300   28.7610    7.9593 H         1 UNK         0.0000 
     50 H50         1.2711   30.0661    8.8283 H         1 UNK         0.0000 
     51 H51         7.1775   24.2517    7.0250 H         1 UNK         0.0000 
     52 H52         8.4915   22.2187    6.7345 H         1 UNK         0.0000 
     53 H53         4.9708   19.8364    7.1110 H         1 UNK         0.0000 
     54 H54         2.7075   22.4215    8.1122 H         1 UNK         0.0000 
     55 H55         2.6534   21.8416    6.4418 H         1 UNK         0.0000 
     56 H56         2.9527   20.7461    7.7816 H         1 UNK         0.0000 
     57 H57         7.0773   18.9896    7.1350 H         1 UNK         0.0000 
     58 H58         4.1114   30.8310    7.6966 H         1 UNK         0.0000 
@<TRIPOS>BOND
     1    1    2 1    
     2    1   32 1    
     3    1   33 1    
     4    1   34 1    
     5    2    3 am   BACKBONE|DICT|INTERRES
     6    2   35 1    
     7    3    4 2    
     8    3    5 1    
     9    5   13 1    
    10    5    6 2    
    11    6    7 1    
    12    6   24 1    
    13    7    8 1    
    14    8   13 ar   
    15    8    9 ar   
    16    9   10 ar   
    17    9   36 1    
    18   10   11 ar   
    19   10   37 1    
    20   11   12 ar   
    21   11   23 1    
    22   12   13 ar   
    23   12   14 1    
    24   14   15 1    
    25   14   38 1    
    26   14   39 1    
    27   15   22 1    
    28   15   16 1    
    29   15   58 1    
    30   16   17 1    
    31   16   40 1    
    32   16   41 1    
    33   17   18 1    
    34   17   42 1    
    35   17   43 1    
    36   18   21 1    
    37   18   19 1    
    38   18   22 1    
    39   19   20 1    
    40   19   44 1    
    41   19   45 1    
    42   20   21 1    
    43   21   46 1    
    44   21   47 1    
    45   22   48 1    
    46   22   49 1    
    47   23   50 1    
    48   24   29 ar   
    49   24   25 ar   
    50   25   26 ar   
    51   25   51 1    
    52   26   27 ar   
    53   26   52 1    
    54   27   28 ar   
    55   27   31 1    
    56   28   29 ar   
    57   28   53 1    
    58   29   30 1    
    59   30   54 1    
    60   30   55 1    
    61   30   56 1    
    62   31   57 1    
@<TRIPOS>SUBSTRUCTURE
     1 UNK         1 GROUP             0       ****    0 ROOT    
