@<TRIPOS>MOLECULE
/home/yujie/leadopt/data/result/selection/PSK13/lig_27.sdf:1
47   51    1
SMALL
USER_CHARGES


@<TRIPOS>ATOM
      1 O1          6.9511   19.4891    6.8977 O.3       1 UNK         0.0000 
      2 C2          6.2849   20.6731    7.0531 C.ar      1 UNK         0.0000 
      3 C3          4.9498   20.6698    7.4493 C.ar      1 UNK         0.0000 
      4 C4          4.2864   21.8792    7.6426 C.ar      1 UNK         0.0000 
      5 C5          4.9601   23.0891    7.4441 C.ar      1 UNK         0.0000 
      6 C6          6.3007   23.0784    7.0409 C.ar      1 UNK         0.0000 
      7 C7          6.9627   21.8716    6.8414 C.ar      1 UNK         0.0000 
      8 C8          4.2633   24.3937    7.6397 C.2       1 UNK         0.0000 
      9 C9          4.5648   25.6849    7.2228 C.2       1 UNK         0.0000 
     10 C10         3.4900   26.5221    7.6431 C.ar      1 UNK         0.0000 
     11 C11         3.1673   27.8852    7.5340 C.ar      1 UNK         0.0000 
     12 C12         1.9101   28.2807    8.0236 C.ar      1 UNK         0.0000 
     13 C13         1.0854   27.4118    8.7409 C.ar      1 UNK         0.0000 
     14 C14         1.4398   26.0846    8.9555 C.ar      1 UNK         0.0000 
     15 C15         2.6276   25.6562    8.3621 C.ar      1 UNK         0.0000 
     16 O16         3.1010   24.3778    8.3585 O.3       1 UNK         0.0000 
     17 O17         1.4843   29.4423    7.8020 O.co2     1 UNK         0.0000 
     18 C18         4.1381   28.9125    6.9498 C.3       1 UNK         0.0000 
     19 N19         5.0913   29.4411    8.0421 N.4       1 UNK         0.0000 
     20 C20         4.4022   30.1714    9.2122 C.3       1 UNK         0.0000 
     21 C21         5.5407   30.8764    9.9406 C.3       1 UNK         0.0000 
     22 C22         6.6863   31.0174    8.9161 C.3       1 UNK         0.0000 
     23 C23         7.3759   32.3898    8.8809 C.3       1 UNK         0.0000 
     24 O24         8.5382   31.8424    9.6375 O.3       1 UNK         0.0000 
     25 C25         8.0485   30.4626    9.3769 C.3       1 UNK         0.0000 
     26 C26         6.1603   30.4465    7.5875 C.3       1 UNK         0.0000 
     27 H27         7.8830   19.6134    6.7131 H         1 UNK         0.0000 
     28 H28         4.4328   19.7313    7.6073 H         1 UNK         0.0000 
     29 H29         3.2498   21.8721    7.9477 H         1 UNK         0.0000 
     30 H30         6.8328   24.0056    6.8829 H         1 UNK         0.0000 
     31 H31         7.9989   21.8719    6.5362 H         1 UNK         0.0000 
     32 H32         5.4321   25.9716    6.6484 H         1 UNK         0.0000 
     33 H33         0.1485   27.7827    9.1305 H         1 UNK         0.0000 
     34 H34         0.8037   25.4144    9.5099 H         1 UNK         0.0000 
     35 H35         3.6468   29.7909    6.5242 H         1 UNK         0.0000 
     36 H36         4.7808   28.4760    6.1820 H         1 UNK         0.0000 
     37 H37         3.8338   29.4565    9.8099 H         1 UNK         0.0000 
     38 H38         3.6865   30.8675    8.7665 H         1 UNK         0.0000 
     39 H39         5.8336   30.2921   10.8150 H         1 UNK         0.0000 
     40 H40         5.1938   31.8413   10.3109 H         1 UNK         0.0000 
     41 H41         6.9167   33.1920    9.4576 H         1 UNK         0.0000 
     42 H42         7.7309   32.7252    7.9037 H         1 UNK         0.0000 
     43 H43         8.6818   30.0249    8.6031 H         1 UNK         0.0000 
     44 H44         8.0643   29.8729   10.2938 H         1 UNK         0.0000 
     45 H45         5.6446   31.1817    6.9664 H         1 UNK         0.0000 
     46 H46         6.8858   29.9074    6.9724 H         1 UNK         0.0000 
     47 H47         5.5627   28.6309    8.4231 H         1 UNK         0.0000 
@<TRIPOS>BOND
     1    1    2 1    
     2    1   27 1    
     3    2    7 ar   
     4    2    3 ar   
     5    3    4 ar   
     6    3   28 1    
     7    4    5 ar   
     8    4   29 1    
     9    5    6 ar   
    10    5    8 1    
    11    6    7 ar   
    12    6   30 1    
    13    7   31 1    
    14    8   16 1    
    15    8    9 2    
    16    9   10 1    
    17    9   32 1    
    18   10   15 ar   
    19   10   11 ar   
    20   11   12 ar   
    21   11   18 1    
    22   12   13 ar   
    23   12   17 1    
    24   13   14 ar   
    25   13   33 1    
    26   14   15 ar   
    27   14   34 1    
    28   15   16 1    
    29   18   19 1    
    30   18   35 1    
    31   18   36 1    
    32   19   26 1    
    33   19   20 1    
    34   19   47 1    
    35   20   21 1    
    36   20   37 1    
    37   20   38 1    
    38   21   22 1    
    39   21   39 1    
    40   21   40 1    
    41   22   25 1    
    42   22   23 1    
    43   22   26 1    
    44   23   24 1    
    45   23   41 1    
    46   23   42 1    
    47   24   25 1    
    48   25   43 1    
    49   25   44 1    
    50   26   45 1    
    51   26   46 1    
@<TRIPOS>SUBSTRUCTURE
     1 UNK         1 GROUP             0       ****    0 ROOT    
