@<TRIPOS>MOLECULE
/home/yujie/leadopt/data/result/selection/PSK13/lig_18.sdf:1
51   55    1
SMALL
USER_CHARGES


@<TRIPOS>ATOM
      1 C1          6.7412   25.6623    3.9238 C.3       1 UNK         0.0000 
      2 N2          5.7307   25.5557    4.9683 N.am      1 UNK         0.0000 
      3 C3          5.7420   26.2435    6.1178 C.2       1 UNK         0.0000 
      4 O4          6.6177   27.0419    6.4395 O.2       1 UNK         0.0000 
      5 C5          4.6265   25.9559    6.9722 C.2       1 UNK         0.0000 
      6 C6          4.3049   24.6760    7.4716 C.2       1 UNK         0.0000 
      7 O7          3.2114   24.7231    8.2827 O.3       1 UNK         0.0000 
      8 C8          2.7909   26.0103    8.3044 C.ar      1 UNK         0.0000 
      9 C9          1.6779   26.4606    9.0150 C.ar      1 UNK         0.0000 
     10 C10         1.3666   27.8090    8.8876 C.ar      1 UNK         0.0000 
     11 C11         2.1409   28.6686    8.1112 C.ar      1 UNK         0.0000 
     12 C12         3.2989   28.2288    7.4399 C.ar      1 UNK         0.0000 
     13 C13         3.6212   26.8471    7.5178 C.ar      1 UNK         0.0000 
     14 C14         4.1620   29.2507    6.7004 C.3       1 UNK         0.0000 
     15 N15         5.3351   29.5925    7.4908 N.3       1 UNK         0.0000 
     16 C16         6.2813   30.6046    7.0331 C.3       1 UNK         0.0000 
     17 C17         6.5824   30.9389    8.4863 C.3       1 UNK         0.0000 
     18 C18         7.8711   30.4513    9.1505 C.3       1 UNK         0.0000 
     19 O19         8.2070   31.8422    9.5661 O.3       1 UNK         0.0000 
     20 C20         6.9341   32.3452    8.9697 C.3       1 UNK         0.0000 
     21 C21         5.2362   30.2847    8.7752 C.3       1 UNK         0.0000 
     22 O22         1.7349   29.9738    8.0444 O.3       1 UNK         0.0000 
     23 C23         4.8838   23.3024    7.3179 C.ar      1 UNK         0.0000 
     24 C24         4.0251   22.1972    7.3618 C.ar      1 UNK         0.0000 
     25 C25         4.5270   20.9065    7.2245 C.ar      1 UNK         0.0000 
     26 C26         5.8925   20.7169    7.0382 C.ar      1 UNK         0.0000 
     27 C27         6.7572   21.8062    6.9876 C.ar      1 UNK         0.0000 
     28 C28         6.2563   23.0979    7.1396 C.ar      1 UNK         0.0000 
     29 O29         6.3873   19.4486    6.9100 O.3       1 UNK         0.0000 
     30 H30         6.2830   25.4898    2.9508 H         1 UNK         0.0000 
     31 H31         7.5170   24.9135    4.0743 H         1 UNK         0.0000 
     32 H32         7.2110   26.6452    3.9027 H         1 UNK         0.0000 
     33 H33         4.9734   24.9080    4.8134 H         1 UNK         0.0000 
     34 H34         1.0853   25.7920    9.6227 H         1 UNK         0.0000 
     35 H35         0.5072   28.2037    9.4097 H         1 UNK         0.0000 
     36 H36         4.4859   28.8340    5.7455 H         1 UNK         0.0000 
     37 H37         3.6022   30.1568    6.4650 H         1 UNK         0.0000 
     38 H38         7.0990   30.1927    6.4417 H         1 UNK         0.0000 
     39 H39         5.8169   31.4315    6.4892 H         1 UNK         0.0000 
     40 H40         7.7443   29.8426   10.0418 H         1 UNK         0.0000 
     41 H41         8.6456   30.0770    8.4795 H         1 UNK         0.0000 
     42 H42         7.1599   33.0760    8.1921 H         1 UNK         0.0000 
     43 H43         6.3075   32.7373    9.7713 H         1 UNK         0.0000 
     44 H44         4.4099   30.9993    8.8315 H         1 UNK         0.0000 
     45 H45         5.1810   29.6103    9.6315 H         1 UNK         0.0000 
     46 H46         1.3175   30.2426    8.8850 H         1 UNK         0.0000 
     47 H47         2.9625   22.3353    7.4990 H         1 UNK         0.0000 
     48 H48         3.8552   20.0605    7.2608 H         1 UNK         0.0000 
     49 H49         7.8155   21.6479    6.8466 H         1 UNK         0.0000 
     50 H50         6.9394   23.9338    7.1162 H         1 UNK         0.0000 
     51 H51         5.6780   18.7977    6.8395 H         1 UNK         0.0000 
@<TRIPOS>BOND
     1    1    2 1    
     2    1   30 1    
     3    1   31 1    
     4    1   32 1    
     5    2    3 am   BACKBONE|DICT|INTERRES
     6    2   33 1    
     7    3    4 2    
     8    3    5 1    
     9    5   13 1    
    10    5    6 2    
    11    6    7 1    
    12    6   23 1    
    13    7    8 1    
    14    8   13 ar   
    15    8    9 ar   
    16    9   10 ar   
    17    9   34 1    
    18   10   11 ar   
    19   10   35 1    
    20   11   12 ar   
    21   11   22 1    
    22   12   13 ar   
    23   12   14 1    
    24   14   15 1    
    25   14   36 1    
    26   14   37 1    
    27   15   21 1    
    28   15   16 1    
    29   16   17 1    
    30   16   38 1    
    31   16   39 1    
    32   17   20 1    
    33   17   18 1    
    34   17   21 1    
    35   18   19 1    
    36   18   40 1    
    37   18   41 1    
    38   19   20 1    
    39   20   42 1    
    40   20   43 1    
    41   21   44 1    
    42   21   45 1    
    43   22   46 1    
    44   23   28 ar   
    45   23   24 ar   
    46   24   25 ar   
    47   24   47 1    
    48   25   26 ar   
    49   25   48 1    
    50   26   27 ar   
    51   26   29 1    
    52   27   28 ar   
    53   27   49 1    
    54   28   50 1    
    55   29   51 1    
@<TRIPOS>SUBSTRUCTURE
     1 UNK         1 GROUP             0       ****    0 ROOT    
