@<TRIPOS>MOLECULE
/home/yujie/leadopt/data/result/selection/PSK13/lig_32.sdf:1
57   62    1
SMALL
USER_CHARGES


@<TRIPOS>ATOM
      1 C1          6.7787   25.5257    3.9719 C.3       1 UNK         0.0000 
      2 N2          5.7936   25.3699    5.0312 N.am      1 UNK         0.0000 
      3 C3          5.7335   26.1400    6.1239 C.2       1 UNK         0.0000 
      4 O4          6.4775   27.0937    6.3514 O.2       1 UNK         0.0000 
      5 C5          4.6847   25.7738    7.0256 C.2       1 UNK         0.0000 
      6 C6          4.4774   24.4872    7.5708 C.2       1 UNK         0.0000 
      7 O7          3.4282   24.4876    8.4374 O.3       1 UNK         0.0000 
      8 C8          2.9185   25.7369    8.4432 C.ar      1 UNK         0.0000 
      9 C9          1.8121   26.1305    9.1923 C.ar      1 UNK         0.0000 
     10 C10         1.4024   27.4478    9.0386 C.ar      1 UNK         0.0000 
     11 C11         2.0756   28.3284    8.1953 C.ar      1 UNK         0.0000 
     12 C12         3.2333   27.9492    7.4907 C.ar      1 UNK         0.0000 
     13 C13         3.6526   26.6021    7.6021 C.ar      1 UNK         0.0000 
     14 C14         3.8984   28.9508    6.5565 C.3       1 UNK         0.0000 
     15 N15         5.2050   29.5880    7.0502 N.4       1 UNK         0.0000 
     16 C16         5.6305   30.7187    6.0990 C.3       1 UNK         0.0000 
     17 C17         6.5340   31.6364    6.9114 C.3       1 UNK         0.0000 
     18 C18         6.4724   31.1388    8.3554 C.3       1 UNK         0.0000 
     19 C19         7.7913   30.5259    8.8622 C.3       1 UNK         0.0000 
     20 O20         7.7799   31.4294   10.0410 O.3       1 UNK         0.0000 
     21 C21         6.6275   32.1827    9.4711 C.3       1 UNK         0.0000 
     22 C22         5.2182   30.2443    8.4373 C.3       1 UNK         0.0000 
     23 O23         1.5753   29.4756    8.0372 O.co2     1 UNK         0.0000 
     24 C24         5.1185   23.1402    7.4137 C.ar      1 UNK         0.0000 
     25 C25         4.3409   21.9979    7.6418 C.ar      1 UNK         0.0000 
     26 C26         4.8378   20.7050    7.4958 C.ar      1 UNK         0.0000 
     27 C27         6.1608   20.5862    7.0685 C.ar      1 UNK         0.0000 
     28 N28         6.9278   19.4729    6.8045 N.pl3     1 UNK         0.0000 
     29 C29         8.1625   19.8542    6.3451 C.ar      1 UNK         0.0000 
     30 C30         8.2553   21.2292    6.3792 C.ar      1 UNK         0.0000 
     31 C31         6.9875   21.7237    6.8239 C.ar      1 UNK         0.0000 
     32 C32         6.4581   23.0039    7.0359 C.ar      1 UNK         0.0000 
     33 H33         6.6409   18.5082    6.8964 H         1 UNK         0.0000 
     34 H34         6.9476   24.5730    3.4704 H         1 UNK         0.0000 
     35 H35         6.4172   26.2420    3.2391 H         1 UNK         0.0000 
     36 H36         7.7353   25.8808    4.3560 H         1 UNK         0.0000 
     37 H37         5.0938   24.6520    4.9185 H         1 UNK         0.0000 
     38 H38         1.2975   25.4410    9.8397 H         1 UNK         0.0000 
     39 H39         0.5346   27.8033    9.5688 H         1 UNK         0.0000 
     40 H40         4.2099   28.4647    5.6394 H         1 UNK         0.0000 
     41 H41         3.2407   29.7769    6.2819 H         1 UNK         0.0000 
     42 H42         6.0714   30.2264    5.2436 H         1 UNK         0.0000 
     43 H43         4.7359   31.2559    5.7756 H         1 UNK         0.0000 
     44 H44         7.5471   31.6643    6.5076 H         1 UNK         0.0000 
     45 H45         6.1404   32.6434    6.8464 H         1 UNK         0.0000 
     46 H46         7.7726   29.4898    9.1825 H         1 UNK         0.0000 
     47 H47         8.6881   30.7520    8.2836 H         1 UNK         0.0000 
     48 H48         6.9872   33.1661    9.1654 H         1 UNK         0.0000 
     49 H49         5.8187   32.2352   10.2024 H         1 UNK         0.0000 
     50 H50         4.2803   30.8009    8.5240 H         1 UNK         0.0000 
     51 H51         5.2150   29.4557    9.1918 H         1 UNK         0.0000 
     52 H52         3.3078   22.1069    7.9381 H         1 UNK         0.0000 
     53 H53         4.2133   19.8425    7.6791 H         1 UNK         0.0000 
     54 H54         8.8810   19.1090    6.0386 H         1 UNK         0.0000 
     55 H55         9.1220   21.8075    6.0935 H         1 UNK         0.0000 
     56 H56         7.0794   23.8708    6.8742 H         1 UNK         0.0000 
     57 H57         5.8978   28.8433    7.0487 H         1 UNK         0.0000 
@<TRIPOS>BOND
     1    1    2 1    
     2    1   34 1    
     3    1   35 1    
     4    1   36 1    
     5    2    3 am   BACKBONE|DICT|INTERRES
     6    2   37 1    
     7    3    4 2    
     8    3    5 1    
     9    5   13 1    
    10    5    6 2    
    11    6    7 1    
    12    6   24 1    
    13    7    8 1    
    14    8   13 ar   
    15    8    9 ar   
    16    9   10 ar   
    17    9   38 1    
    18   10   11 ar   
    19   10   39 1    
    20   11   12 ar   
    21   11   23 1    
    22   12   13 ar   
    23   12   14 1    
    24   14   15 1    
    25   14   40 1    
    26   14   41 1    
    27   15   22 1    
    28   15   16 1    
    29   15   57 1    
    30   16   17 1    
    31   16   42 1    
    32   16   43 1    
    33   17   18 1    
    34   17   44 1    
    35   17   45 1    
    36   18   21 1    
    37   18   19 1    
    38   18   22 1    
    39   19   20 1    
    40   19   46 1    
    41   19   47 1    
    42   20   21 1    
    43   21   48 1    
    44   21   49 1    
    45   22   50 1    
    46   22   51 1    
    47   24   32 ar   
    48   24   25 ar   
    49   25   26 ar   
    50   25   52 1    
    51   26   27 ar   
    52   26   53 1    
    53   27   31 ar   
    54   27   28 ar   
    55   28   33 1    
    56   28   29 ar   
    57   29   30 ar   
    58   29   54 1    
    59   30   31 ar   
    60   30   55 1    
    61   31   32 ar   
    62   32   56 1    
@<TRIPOS>SUBSTRUCTURE
     1 UNK         1 GROUP             0       ****    0 ROOT    
