@<TRIPOS>MOLECULE
/home/yujie/leadopt/data/result/selection/PSK13/lig_42.sdf:1
56   60    1
SMALL
USER_CHARGES


@<TRIPOS>ATOM
      1 O1          6.9342   19.4935    7.1967 O.3       1 UNK         0.0000 
      2 C2          6.3788   20.7437    7.2406 C.ar      1 UNK         0.0000 
      3 C3          7.1886   21.8805    7.2416 C.ar      1 UNK         0.0000 
      4 C4          6.5983   23.1391    7.3746 C.ar      1 UNK         0.0000 
      5 C5          5.2021   23.2317    7.4384 C.ar      1 UNK         0.0000 
      6 N6          4.4063   22.1261    7.4204 N.ar      1 UNK         0.0000 
      7 C7          4.9970   20.9073    7.3266 C.ar      1 UNK         0.0000 
      8 C8          4.4843   24.5448    7.5229 C.2       1 UNK         0.0000 
      9 O9          3.3426   24.5006    8.2675 O.3       1 UNK         0.0000 
     10 C10         2.8681   25.7664    8.3465 C.ar      1 UNK         0.0000 
     11 C11         1.7332   26.1470    9.0639 C.ar      1 UNK         0.0000 
     12 C12         1.3966   27.4934    9.0374 C.ar      1 UNK         0.0000 
     13 C13         2.1546   28.4189    8.3316 C.ar      1 UNK         0.0000 
     14 C14         3.3179   28.0455    7.6291 C.ar      1 UNK         0.0000 
     15 C15         3.6830   26.6716    7.6290 C.ar      1 UNK         0.0000 
     16 C16         4.7487   25.8566    7.0708 C.2       1 UNK         0.0000 
     17 C17         5.9031   26.2737    6.3118 C.2       1 UNK         0.0000 
     18 O18         6.6076   27.1936    6.7212 O.2       1 UNK         0.0000 
     19 N19         6.1457   25.6705    5.1308 N.am      1 UNK         0.0000 
     20 C20         5.7333   24.3949    4.4936 C.3       1 UNK         0.0000 
     21 C21         6.4394   24.9206    3.2408 C.3       1 UNK         0.0000 
     22 C22         7.1121   26.0270    4.0708 C.3       1 UNK         0.0000 
     23 C23         4.1331   29.1259    6.9260 C.3       1 UNK         0.0000 
     24 N24         5.3178   29.6459    7.7744 N.4       1 UNK         0.0000 
     25 C25         4.8239   30.3949    9.0405 C.3       1 UNK         0.0000 
     26 C26         6.0344   30.8690    9.8586 C.3       1 UNK         0.0000 
     27 C27         7.0173   31.7046    9.0170 C.3       1 UNK         0.0000 
     28 C28         7.4502   30.9543    7.7451 C.3       1 UNK         0.0000 
     29 C29         6.2363   30.5322    6.9023 C.3       1 UNK         0.0000 
     30 O30         1.7421   29.7236    8.3621 O.3       1 UNK         0.0000 
     31 H31         7.8831   19.5010    7.3447 H         1 UNK         0.0000 
     32 H32         8.2631   21.7922    7.1794 H         1 UNK         0.0000 
     33 H33         7.2173   24.0228    7.3951 H         1 UNK         0.0000 
     34 H34         4.3458   20.0443    7.3333 H         1 UNK         0.0000 
     35 H35         1.1450   25.4384    9.6207 H         1 UNK         0.0000 
     36 H36         0.5328   27.8338    9.5826 H         1 UNK         0.0000 
     37 H37         6.1730   23.5401    4.9950 H         1 UNK         0.0000 
     38 H38         4.6503   24.3566    4.4445 H         1 UNK         0.0000 
     39 H39         5.7346   25.3207    2.5068 H         1 UNK         0.0000 
     40 H40         7.1750   24.2040    2.8712 H         1 UNK         0.0000 
     41 H41         6.8913   27.0414    3.7388 H         1 UNK         0.0000 
     42 H42         8.1297   25.8743    4.4356 H         1 UNK         0.0000 
     43 H43         4.5497   28.7521    5.9887 H         1 UNK         0.0000 
     44 H44         3.5430   30.0105    6.6783 H         1 UNK         0.0000 
     45 H45         4.1978   31.2246    8.7095 H         1 UNK         0.0000 
     46 H46         4.2086   29.7117    9.6264 H         1 UNK         0.0000 
     47 H47         5.6766   31.4562   10.7066 H         1 UNK         0.0000 
     48 H48         6.5419   30.0034   10.2822 H         1 UNK         0.0000 
     49 H49         7.8922   31.9678    9.6135 H         1 UNK         0.0000 
     50 H50         6.5436   32.6465    8.7374 H         1 UNK         0.0000 
     51 H51         8.0270   30.0690    8.0191 H         1 UNK         0.0000 
     52 H52         8.1179   31.5766    7.1472 H         1 UNK         0.0000 
     53 H53         6.5337   29.9296    6.0417 H         1 UNK         0.0000 
     54 H54         5.6448   31.3872    6.5637 H         1 UNK         0.0000 
     55 H55         1.2159   29.9748    9.1481 H         1 UNK         0.0000 
     56 H56         5.8659   28.8439    8.0711 H         1 UNK         0.0000 
@<TRIPOS>BOND
     1    1    2 1    
     2    1   31 1    
     3    2    7 ar   
     4    2    3 ar   
     5    3    4 ar   
     6    3   32 1    
     7    4    5 ar   
     8    4   33 1    
     9    5    6 ar   
    10    5    8 1    
    11    6    7 ar   
    12    7   34 1    
    13    8   16 2    
    14    8    9 1    
    15    9   10 1    
    16   10   15 ar   
    17   10   11 ar   
    18   11   12 ar   
    19   11   35 1    
    20   12   13 ar   
    21   12   36 1    
    22   13   14 ar   
    23   13   30 1    
    24   14   15 ar   
    25   14   23 1    
    26   15   16 1    
    27   16   17 1    
    28   17   18 2    
    29   17   19 am   BACKBONE|DICT|INTERRES
    30   19   22 1    
    31   19   20 1    
    32   20   21 1    
    33   20   37 1    
    34   20   38 1    
    35   21   22 1    
    36   21   39 1    
    37   21   40 1    
    38   22   41 1    
    39   22   42 1    
    40   23   24 1    
    41   23   43 1    
    42   23   44 1    
    43   24   29 1    
    44   24   25 1    
    45   24   56 1    
    46   25   26 1    
    47   25   45 1    
    48   25   46 1    
    49   26   27 1    
    50   26   47 1    
    51   26   48 1    
    52   27   28 1    
    53   27   49 1    
    54   27   50 1    
    55   28   29 1    
    56   28   51 1    
    57   28   52 1    
    58   29   53 1    
    59   29   54 1    
    60   30   55 1    
@<TRIPOS>SUBSTRUCTURE
     1 UNK         1 GROUP             0       ****    0 ROOT    
