@<TRIPOS>MOLECULE
/home/yujie/leadopt/data/result/selection/PSK13/lig_46.sdf:1
47   50    1
SMALL
USER_CHARGES


@<TRIPOS>ATOM
      1 C1          5.9786   25.5583    4.8104 C.3       1 UNK         0.0000 
      2 C2          5.7328   26.3274    6.1039 C.2       1 UNK         0.0000 
      3 O3          6.3860   27.3448    6.3162 O.2       1 UNK         0.0000 
      4 C4          4.6422   25.8962    6.9682 C.2       1 UNK         0.0000 
      5 C5          4.3630   24.5790    7.3683 C.2       1 UNK         0.0000 
      6 O6          3.2803   24.5411    8.1916 O.3       1 UNK         0.0000 
      7 C7          2.8405   25.8130    8.3269 C.ar      1 UNK         0.0000 
      8 C8          1.7336   26.1769    9.0893 C.ar      1 UNK         0.0000 
      9 C9          1.3967   27.5225    9.0885 C.ar      1 UNK         0.0000 
     10 C10         2.1416   28.4616    8.3836 C.ar      1 UNK         0.0000 
     11 C11         3.2847   28.1073    7.6416 C.ar      1 UNK         0.0000 
     12 C12         3.6379   26.7310    7.5974 C.ar      1 UNK         0.0000 
     13 C13         4.0704   29.2142    6.9403 C.3       1 UNK         0.0000 
     14 N14         5.2615   29.7217    7.7821 N.4       1 UNK         0.0000 
     15 C15         6.1307   30.7752    7.0676 C.3       1 UNK         0.0000 
     16 C16         6.7595   31.6133    8.1880 C.3       1 UNK         0.0000 
     17 C17         6.1035   31.1761    9.5012 C.3       1 UNK         0.0000 
     18 C18         4.8540   30.4011    9.1021 C.3       1 UNK         0.0000 
     19 O19         1.7340   29.7629    8.4409 O.3       1 UNK         0.0000 
     20 C20         5.0109   23.2491    7.1609 C.ar      1 UNK         0.0000 
     21 C21         6.3948   23.0962    7.0081 C.ar      1 UNK         0.0000 
     22 C22         6.9133   21.8096    6.8418 C.ar      1 UNK         0.0000 
     23 C23         6.0488   20.7149    6.8423 C.ar      1 UNK         0.0000 
     24 C24         4.6833   20.9418    7.0118 C.ar      1 UNK         0.0000 
     25 N25         4.1621   22.1831    7.1706 N.ar      1 UNK         0.0000 
     26 O26         6.5340   19.4474    6.6826 O.3       1 UNK         0.0000 
     27 H27         5.2711   24.7385    4.6895 H         1 UNK         0.0000 
     28 H28         5.8728   26.2300    3.9584 H         1 UNK         0.0000 
     29 H29         6.9903   25.1553    4.7992 H         1 UNK         0.0000 
     30 H30         1.1588   25.4435    9.6342 H         1 UNK         0.0000 
     31 H31         0.5343   27.8523    9.6414 H         1 UNK         0.0000 
     32 H32         4.4763   28.8972    5.9800 H         1 UNK         0.0000 
     33 H33         3.4652   30.0991    6.7362 H         1 UNK         0.0000 
     34 H34         6.8395   30.2341    6.4408 H         1 UNK         0.0000 
     35 H35         5.4647   31.3787    6.4485 H         1 UNK         0.0000 
     36 H36         7.8417   31.4734    8.2232 H         1 UNK         0.0000 
     37 H37         6.5821   32.6746    8.0041 H         1 UNK         0.0000 
     38 H38         5.8521   32.0327   10.1310 H         1 UNK         0.0000 
     39 H39         6.7724   30.5299   10.0753 H         1 UNK         0.0000 
     40 H40         4.0065   31.0479    8.8706 H         1 UNK         0.0000 
     41 H41         4.5211   29.6458    9.8151 H         1 UNK         0.0000 
     42 H42         1.1894   30.0098    9.2184 H         1 UNK         0.0000 
     43 H43         7.0596   23.9470    7.0259 H         1 UNK         0.0000 
     44 H44         7.9763   21.6599    6.7222 H         1 UNK         0.0000 
     45 H45         3.9781   20.1235    7.0207 H         1 UNK         0.0000 
     46 H46         5.8320   18.7863    6.6515 H         1 UNK         0.0000 
     47 H47         5.8407   28.9193    8.0059 H         1 UNK         0.0000 
@<TRIPOS>BOND
     1    1    2 1    
     2    1   27 1    
     3    1   28 1    
     4    1   29 1    
     5    2    3 2    
     6    2    4 1    
     7    4   12 1    
     8    4    5 2    
     9    5    6 1    
    10    5   20 1    
    11    6    7 1    
    12    7   12 ar   
    13    7    8 ar   
    14    8    9 ar   
    15    8   30 1    
    16    9   10 ar   
    17    9   31 1    
    18   10   11 ar   
    19   10   19 1    
    20   11   12 ar   
    21   11   13 1    
    22   13   14 1    
    23   13   32 1    
    24   13   33 1    
    25   14   18 1    
    26   14   15 1    
    27   14   47 1    
    28   15   16 1    
    29   15   34 1    
    30   15   35 1    
    31   16   17 1    
    32   16   36 1    
    33   16   37 1    
    34   17   18 1    
    35   17   38 1    
    36   17   39 1    
    37   18   40 1    
    38   18   41 1    
    39   19   42 1    
    40   20   25 ar   
    41   20   21 ar   
    42   21   22 ar   
    43   21   43 1    
    44   22   23 ar   
    45   22   44 1    
    46   23   24 ar   
    47   23   26 1    
    48   24   25 ar   
    49   24   45 1    
    50   26   46 1    
@<TRIPOS>SUBSTRUCTURE
     1 UNK         1 GROUP             0       ****    0 ROOT    
