@<TRIPOS>MOLECULE
/home/yujie/leadopt/data/result/selection/PSK13/lig_31.sdf:1
57   61    1
SMALL
USER_CHARGES


@<TRIPOS>ATOM
      1 C1          6.4994   25.6954    4.1004 C.3       1 UNK         0.0000 
      2 N2          5.4650   25.6886    5.1224 N.am      1 UNK         0.0000 
      3 C3          5.6520   26.0876    6.3828 C.2       1 UNK         0.0000 
      4 O4          6.7117   26.5102    6.8416 O.2       1 UNK         0.0000 
      5 C5          4.5146   25.8549    7.2068 C.2       1 UNK         0.0000 
      6 C6          4.1467   24.5901    7.6969 C.2       1 UNK         0.0000 
      7 O7          3.0060   24.6609    8.4414 O.3       1 UNK         0.0000 
      8 C8          2.6090   25.9635    8.4194 C.ar      1 UNK         0.0000 
      9 C9          1.4743   26.4665    9.0551 C.ar      1 UNK         0.0000 
     10 C10         1.2236   27.8255    8.8924 C.ar      1 UNK         0.0000 
     11 C11         2.0577   28.6428    8.1285 C.ar      1 UNK         0.0000 
     12 C12         3.2020   28.1412    7.4838 C.ar      1 UNK         0.0000 
     13 C13         3.4871   26.7628    7.6414 C.ar      1 UNK         0.0000 
     14 C14         4.0814   29.0721    6.6494 C.3       1 UNK         0.0000 
     15 N15         5.3273   29.3936    7.3387 N.3       1 UNK         0.0000 
     16 C16         6.4222   29.7180    6.4420 C.3       1 UNK         0.0000 
     17 C17         7.5292   30.1967    7.3687 C.3       1 UNK         0.0000 
     18 C18         6.7557   30.8958    8.4991 C.3       1 UNK         0.0000 
     19 C19         7.1305   32.3675    8.7376 C.3       1 UNK         0.0000 
     20 O20         7.9774   31.9652    9.8964 O.3       1 UNK         0.0000 
     21 C21         7.2886   30.6440    9.9162 C.3       1 UNK         0.0000 
     22 C22         5.2783   30.5407    8.2376 C.3       1 UNK         0.0000 
     23 O23         1.7251   29.9643    8.0417 O.3       1 UNK         0.0000 
     24 C24         4.7680   23.2315    7.5773 C.ar      1 UNK         0.0000 
     25 C25         3.9858   22.0725    7.5884 C.ar      1 UNK         0.0000 
     26 C26         4.5857   20.8235    7.4262 C.ar      1 UNK         0.0000 
     27 C27         5.9652   20.7161    7.2416 C.ar      1 UNK         0.0000 
     28 C28         6.7450   21.8789    7.2403 C.ar      1 UNK         0.0000 
     29 C29         6.1521   23.1166    7.4275 C.ar      1 UNK         0.0000 
     30 O30         6.4916   19.4474    7.1049 O.3       1 UNK         0.0000 
     31 C31         7.8885   19.3018    6.8759 C.3       1 UNK         0.0000 
     32 H32         6.1281   26.2422    3.2414 H         1 UNK         0.0000 
     33 H33         7.4255   26.1726    4.4242 H         1 UNK         0.0000 
     34 H34         6.7302   24.6766    3.7893 H         1 UNK         0.0000 
     35 H35         4.5332   25.4191    4.8408 H         1 UNK         0.0000 
     36 H36         0.8261   25.8303    9.6403 H         1 UNK         0.0000 
     37 H37         0.3587   28.2587    9.3712 H         1 UNK         0.0000 
     38 H38         4.3123   28.5522    5.7192 H         1 UNK         0.0000 
     39 H39         3.5555   29.9808    6.3553 H         1 UNK         0.0000 
     40 H40         6.7047   28.8265    5.8842 H         1 UNK         0.0000 
     41 H41         6.1237   30.4484    5.6905 H         1 UNK         0.0000 
     42 H42         8.1076   29.3402    7.7208 H         1 UNK         0.0000 
     43 H43         8.2177   30.8566    6.8417 H         1 UNK         0.0000 
     44 H44         7.7340   32.8449    7.9686 H         1 UNK         0.0000 
     45 H45         6.3586   33.0285    9.1250 H         1 UNK         0.0000 
     46 H46         6.5398   30.6654   10.7138 H         1 UNK         0.0000 
     47 H47         8.0173   29.8428   10.0388 H         1 UNK         0.0000 
     48 H48         4.7451   31.3628    7.7590 H         1 UNK         0.0000 
     49 H49         4.6996   30.3148    9.1352 H         1 UNK         0.0000 
     50 H50         1.3024   30.2429    8.8750 H         1 UNK         0.0000 
     51 H51         2.9141   22.1388    7.7066 H         1 UNK         0.0000 
     52 H52         3.9812   19.9276    7.4356 H         1 UNK         0.0000 
     53 H53         7.8153   21.8447    7.1173 H         1 UNK         0.0000 
     54 H54         6.7945   23.9825    7.4507 H         1 UNK         0.0000 
     55 H55         8.1330   18.2433    6.8026 H         1 UNK         0.0000 
     56 H56         8.4818   19.7162    7.6950 H         1 UNK         0.0000 
     57 H57         8.1912   19.7742    5.9409 H         1 UNK         0.0000 
@<TRIPOS>BOND
     1    1    2 1    
     2    1   32 1    
     3    1   33 1    
     4    1   34 1    
     5    2    3 am   BACKBONE|DICT|INTERRES
     6    2   35 1    
     7    3    4 2    
     8    3    5 1    
     9    5   13 1    
    10    5    6 2    
    11    6    7 1    
    12    6   24 1    
    13    7    8 1    
    14    8   13 ar   
    15    8    9 ar   
    16    9   10 ar   
    17    9   36 1    
    18   10   11 ar   
    19   10   37 1    
    20   11   12 ar   
    21   11   23 1    
    22   12   13 ar   
    23   12   14 1    
    24   14   15 1    
    25   14   38 1    
    26   14   39 1    
    27   15   22 1    
    28   15   16 1    
    29   16   17 1    
    30   16   40 1    
    31   16   41 1    
    32   17   18 1    
    33   17   42 1    
    34   17   43 1    
    35   18   21 1    
    36   18   19 1    
    37   18   22 1    
    38   19   20 1    
    39   19   44 1    
    40   19   45 1    
    41   20   21 1    
    42   21   46 1    
    43   21   47 1    
    44   22   48 1    
    45   22   49 1    
    46   23   50 1    
    47   24   29 ar   
    48   24   25 ar   
    49   25   26 ar   
    50   25   51 1    
    51   26   27 ar   
    52   26   52 1    
    53   27   28 ar   
    54   27   30 1    
    55   28   29 ar   
    56   28   53 1    
    57   29   54 1    
    58   30   31 1    
    59   31   55 1    
    60   31   56 1    
    61   31   57 1    
@<TRIPOS>SUBSTRUCTURE
     1 UNK         1 GROUP             0       ****    0 ROOT    
