@<TRIPOS>MOLECULE
/home/yujie/leadopt/data/result/selection/PSK13/lig_13.sdf:1
49   52    1
SMALL
USER_CHARGES


@<TRIPOS>ATOM
      1 C1          6.7556   25.6199    4.0065 C.3       1 UNK         0.0000 
      2 N2          5.7340   25.4890    5.0350 N.am      1 UNK         0.0000 
      3 C3          5.6952   26.2208    6.1571 C.2       1 UNK         0.0000 
      4 O4          6.5116   27.0940    6.4386 O.2       1 UNK         0.0000 
      5 C5          4.6070   25.8870    7.0331 C.2       1 UNK         0.0000 
      6 C6          4.3305   24.5930    7.5226 C.2       1 UNK         0.0000 
      7 O7          3.2595   24.6012    8.3655 O.3       1 UNK         0.0000 
      8 C8          2.8182   25.8789    8.4355 C.ar      1 UNK         0.0000 
      9 C9          1.7141   26.2947    9.1786 C.ar      1 UNK         0.0000 
     10 C10         1.3880   27.6440    9.1015 C.ar      1 UNK         0.0000 
     11 C11         2.1369   28.5342    8.3364 C.ar      1 UNK         0.0000 
     12 C12         3.2709   28.1227    7.6097 C.ar      1 UNK         0.0000 
     13 C13         3.6111   26.7460    7.6415 C.ar      1 UNK         0.0000 
     14 C14         4.0704   29.1732    6.8366 C.3       1 UNK         0.0000 
     15 N15         5.2177   29.6761    7.5959 N.3       1 UNK         0.0000 
     16 C16         4.8885   30.3873    8.8253 C.3       1 UNK         0.0000 
     17 C17         6.1645   31.1416    9.2006 C.3       1 UNK         0.0000 
     18 C18         6.8834   31.3527    7.8638 C.3       1 UNK         0.0000 
     19 C19         5.9773   30.6625    6.8419 C.3       1 UNK         0.0000 
     20 O20         1.7342   29.8422    8.3119 O.3       1 UNK         0.0000 
     21 C21         4.9407   23.2361    7.3249 C.ar      1 UNK         0.0000 
     22 C22         6.3073   23.0757    7.0684 C.ar      1 UNK         0.0000 
     23 C23         6.8383   21.8066    6.8548 C.ar      1 UNK         0.0000 
     24 C24         6.0098   20.6908    6.9318 C.ar      1 UNK         0.0000 
     25 C25         4.6527   20.8326    7.2069 C.ar      1 UNK         0.0000 
     26 C26         4.1200   22.1041    7.3990 C.ar      1 UNK         0.0000 
     27 O27         6.5340   19.4424    6.7451 O.3       1 UNK         0.0000 
     28 H28         6.5188   24.9734    3.1603 H         1 UNK         0.0000 
     29 H29         6.8131   26.6447    3.6424 H         1 UNK         0.0000 
     30 H30         7.7351   25.3343    4.3946 H         1 UNK         0.0000 
     31 H31         4.9922   24.8243    4.8726 H         1 UNK         0.0000 
     32 H32         1.1364   25.5967    9.7652 H         1 UNK         0.0000 
     33 H33         0.5324   28.0184    9.6415 H         1 UNK         0.0000 
     34 H34         4.4240   28.7334    5.9045 H         1 UNK         0.0000 
     35 H35         3.4266   30.0029    6.5419 H         1 UNK         0.0000 
     36 H36         4.0245   31.0423    8.7089 H         1 UNK         0.0000 
     37 H37         4.6004   29.6650    9.5893 H         1 UNK         0.0000 
     38 H38         5.9297   32.0848    9.6966 H         1 UNK         0.0000 
     39 H39         6.7694   30.5527    9.8916 H         1 UNK         0.0000 
     40 H40         7.8773   30.9025    7.8715 H         1 UNK         0.0000 
     41 H41         6.9976   32.4128    7.6316 H         1 UNK         0.0000 
     42 H42         6.5351   30.1453    6.0617 H         1 UNK         0.0000 
     43 H43         5.3364   31.3715    6.3128 H         1 UNK         0.0000 
     44 H44         1.2378   30.1175    9.1093 H         1 UNK         0.0000 
     45 H45         6.9671   23.9296    7.0243 H         1 UNK         0.0000 
     46 H46         7.8906   21.6851    6.6471 H         1 UNK         0.0000 
     47 H47         4.0107   19.9661    7.2647 H         1 UNK         0.0000 
     48 H48         3.0631   22.2047    7.5990 H         1 UNK         0.0000 
     49 H49         5.8508   18.7633    6.7769 H         1 UNK         0.0000 
@<TRIPOS>BOND
     1    1    2 1    
     2    1   28 1    
     3    1   29 1    
     4    1   30 1    
     5    2    3 am   BACKBONE|DICT|INTERRES
     6    2   31 1    
     7    3    4 2    
     8    3    5 1    
     9    5   13 1    
    10    5    6 2    
    11    6    7 1    
    12    6   21 1    
    13    7    8 1    
    14    8   13 ar   
    15    8    9 ar   
    16    9   10 ar   
    17    9   32 1    
    18   10   11 ar   
    19   10   33 1    
    20   11   12 ar   
    21   11   20 1    
    22   12   13 ar   
    23   12   14 1    
    24   14   15 1    
    25   14   34 1    
    26   14   35 1    
    27   15   19 1    
    28   15   16 1    
    29   16   17 1    
    30   16   36 1    
    31   16   37 1    
    32   17   18 1    
    33   17   38 1    
    34   17   39 1    
    35   18   19 1    
    36   18   40 1    
    37   18   41 1    
    38   19   42 1    
    39   19   43 1    
    40   20   44 1    
    41   21   26 ar   
    42   21   22 ar   
    43   22   23 ar   
    44   22   45 1    
    45   23   24 ar   
    46   23   46 1    
    47   24   25 ar   
    48   24   27 1    
    49   25   26 ar   
    50   25   47 1    
    51   26   48 1    
    52   27   49 1    
@<TRIPOS>SUBSTRUCTURE
     1 UNK         1 GROUP             0       ****    0 ROOT    
