@<TRIPOS>MOLECULE
/home/yujie/leadopt/data/result/selection/PSK13/lig_30.sdf:1
57   61    1
SMALL
USER_CHARGES


@<TRIPOS>ATOM
      1 C1          6.7611   25.6411    3.9668 C.3       1 UNK         0.0000 
      2 N2          5.7301   25.5629    4.9914 N.am      1 UNK         0.0000 
      3 C3          5.7350   26.2704    6.1298 C.2       1 UNK         0.0000 
      4 O4          6.6095   27.0739    6.4401 O.2       1 UNK         0.0000 
      5 C5          4.6462   25.9505    7.0119 C.2       1 UNK         0.0000 
      6 C6          4.3850   24.6573    7.5080 C.2       1 UNK         0.0000 
      7 O7          3.2983   24.6447    8.3296 O.3       1 UNK         0.0000 
      8 C8          2.8444   25.9209    8.3961 C.ar      1 UNK         0.0000 
      9 C9          1.7351   26.3285    9.1409 C.ar      1 UNK         0.0000 
     10 C10         1.4135   27.6802    9.0840 C.ar      1 UNK         0.0000 
     11 C11         2.1533   28.5766    8.3148 C.ar      1 UNK         0.0000 
     12 C12         3.2800   28.1745    7.5743 C.ar      1 UNK         0.0000 
     13 C13         3.6383   26.8011    7.6138 C.ar      1 UNK         0.0000 
     14 C14         4.0241   29.2075    6.7260 C.3       1 UNK         0.0000 
     15 N15         5.2858   29.6473    7.3197 N.3       1 UNK         0.0000 
     16 C16         6.1292   30.3020    6.3353 C.3       1 UNK         0.0000 
     17 C17         7.2246   31.0329    7.1048 C.3       1 UNK         0.0000 
     18 C18         6.6488   31.1416    8.5229 C.3       1 UNK         0.0000 
     19 C19         6.9125   32.4638    9.2613 C.3       1 UNK         0.0000 
     20 O20         8.0020   31.8152   10.0406 O.3       1 UNK         0.0000 
     21 C21         7.4943   30.4797    9.6155 C.3       1 UNK         0.0000 
     22 C22         5.2006   30.6366    8.3868 C.3       1 UNK         0.0000 
     23 O23         1.7373   29.8788    8.2841 O.3       1 UNK         0.0000 
     24 C24         5.0374   23.3240    7.3189 C.ar      1 UNK         0.0000 
     25 C25         4.2546   22.1683    7.3146 C.ar      1 UNK         0.0000 
     26 C26         4.8400   20.9289    7.0800 C.ar      1 UNK         0.0000 
     27 C27         6.2128   20.8376    6.8372 C.ar      1 UNK         0.0000 
     28 C28         7.0052   21.9894    6.8779 C.ar      1 UNK         0.0000 
     29 C29         6.4197   23.2235    7.1313 C.ar      1 UNK         0.0000 
     30 C30         6.8015   19.4693    6.5222 C.3       1 UNK         0.0000 
     31 O31         8.1323   19.4685    6.0418 O.3       1 UNK         0.0000 
     32 H32         6.4693   25.0544    3.0955 H         1 UNK         0.0000 
     33 H33         6.9210   26.6674    3.6426 H         1 UNK         0.0000 
     34 H34         7.7066   25.2486    4.3447 H         1 UNK         0.0000 
     35 H35         4.9512   24.9456    4.8185 H         1 UNK         0.0000 
     36 H36         1.1588   25.6263    9.7253 H         1 UNK         0.0000 
     37 H37         0.5630   28.0455    9.6398 H         1 UNK         0.0000 
     38 H38         4.2307   28.7379    5.7643 H         1 UNK         0.0000 
     39 H39         3.3972   30.0702    6.5013 H         1 UNK         0.0000 
     40 H40         6.5339   29.5358    5.6745 H         1 UNK         0.0000 
     41 H41         5.5618   30.9729    5.6833 H         1 UNK         0.0000 
     42 H42         8.1588   30.4725    7.0728 H         1 UNK         0.0000 
     43 H43         7.4016   32.0137    6.6604 H         1 UNK         0.0000 
     44 H44         7.3301   33.2827    8.6726 H         1 UNK         0.0000 
     45 H45         6.1359   32.7823    9.9626 H         1 UNK         0.0000 
     46 H46         6.9282   30.0487   10.4414 H         1 UNK         0.0000 
     47 H47         8.3145   29.8373    9.2936 H         1 UNK         0.0000 
     48 H48         4.5122   31.4374    8.1128 H         1 UNK         0.0000 
     49 H49         4.7837   30.2032    9.2988 H         1 UNK         0.0000 
     50 H50         1.2506   30.1535    9.0878 H         1 UNK         0.0000 
     51 H51         3.1865   22.2283    7.4669 H         1 UNK         0.0000 
     52 H52         4.2212   20.0414    7.0587 H         1 UNK         0.0000 
     53 H53         8.0721   21.9364    6.7162 H         1 UNK         0.0000 
     54 H54         7.0467   24.1019    7.1576 H         1 UNK         0.0000 
     55 H55         6.1765   19.0283    5.7481 H         1 UNK         0.0000 
     56 H56         6.7271   18.8338    7.4058 H         1 UNK         0.0000 
     57 H57         8.1736   20.0318    5.2649 H         1 UNK         0.0000 
@<TRIPOS>BOND
     1    1    2 1    
     2    1   32 1    
     3    1   33 1    
     4    1   34 1    
     5    2    3 am   BACKBONE|DICT|INTERRES
     6    2   35 1    
     7    3    4 2    
     8    3    5 1    
     9    5   13 1    
    10    5    6 2    
    11    6    7 1    
    12    6   24 1    
    13    7    8 1    
    14    8   13 ar   
    15    8    9 ar   
    16    9   10 ar   
    17    9   36 1    
    18   10   11 ar   
    19   10   37 1    
    20   11   12 ar   
    21   11   23 1    
    22   12   13 ar   
    23   12   14 1    
    24   14   15 1    
    25   14   38 1    
    26   14   39 1    
    27   15   22 1    
    28   15   16 1    
    29   16   17 1    
    30   16   40 1    
    31   16   41 1    
    32   17   18 1    
    33   17   42 1    
    34   17   43 1    
    35   18   21 1    
    36   18   19 1    
    37   18   22 1    
    38   19   20 1    
    39   19   44 1    
    40   19   45 1    
    41   20   21 1    
    42   21   46 1    
    43   21   47 1    
    44   22   48 1    
    45   22   49 1    
    46   23   50 1    
    47   24   29 ar   
    48   24   25 ar   
    49   25   26 ar   
    50   25   51 1    
    51   26   27 ar   
    52   26   52 1    
    53   27   28 ar   
    54   27   30 1    
    55   28   29 ar   
    56   28   53 1    
    57   29   54 1    
    58   30   31 1    
    59   30   55 1    
    60   30   56 1    
    61   31   57 1    
@<TRIPOS>SUBSTRUCTURE
     1 UNK         1 GROUP             0       ****    0 ROOT    
