@<TRIPOS>MOLECULE
/home/yujie/leadopt/data/result/selection/PSK13/lig_33.sdf:1
53   57    1
SMALL
USER_CHARGES


@<TRIPOS>ATOM
      1 C1          6.7746   25.6206    3.9973 C.3       1 UNK         0.0000 
      2 N2          5.7332   25.5272    5.0099 N.am      1 UNK         0.0000 
      3 C3          5.7266   26.2376    6.1463 C.2       1 UNK         0.0000 
      4 O4          6.5830   27.0652    6.4411 O.2       1 UNK         0.0000 
      5 C5          4.6367   25.9126    7.0274 C.2       1 UNK         0.0000 
      6 C6          4.3729   24.6141    7.5143 C.2       1 UNK         0.0000 
      7 O7          3.2834   24.6063    8.3314 O.3       1 UNK         0.0000 
      8 C8          2.8391   25.8832    8.4134 C.ar      1 UNK         0.0000 
      9 C9          1.7293   26.2834    9.1569 C.ar      1 UNK         0.0000 
     10 C10         1.4025   27.6339    9.1055 C.ar      1 UNK         0.0000 
     11 C11         2.1519   28.5394    8.3589 C.ar      1 UNK         0.0000 
     12 C12         3.2788   28.1408    7.6155 C.ar      1 UNK         0.0000 
     13 C13         3.6358   26.7662    7.6410 C.ar      1 UNK         0.0000 
     14 C14         4.0084   29.1818    6.7686 C.3       1 UNK         0.0000 
     15 N15         5.2760   29.6255    7.3433 N.3       1 UNK         0.0000 
     16 C16         6.0553   30.3542    6.3597 C.3       1 UNK         0.0000 
     17 C17         7.1766   31.0517    7.1187 C.3       1 UNK         0.0000 
     18 C18         6.6442   31.1151    8.5556 C.3       1 UNK         0.0000 
     19 C19         6.8852   32.4348    9.3037 C.3       1 UNK         0.0000 
     20 O20         8.0289   31.8189   10.0343 O.3       1 UNK         0.0000 
     21 C21         7.5571   30.4711    9.6055 C.3       1 UNK         0.0000 
     22 C22         5.2104   30.5557    8.4642 C.3       1 UNK         0.0000 
     23 O23         1.7392   29.8418    8.3488 O.3       1 UNK         0.0000 
     24 C24         5.0230   23.2707    7.3527 C.ar      1 UNK         0.0000 
     25 C25         4.3012   22.0776    7.5012 C.ar      1 UNK         0.0000 
     26 C26         4.9602   20.8615    7.3010 C.ar      1 UNK         0.0000 
     27 C27         6.3146   20.8618    6.9656 C.ar      1 UNK         0.0000 
     28 C28         6.9708   22.0869    6.8425 C.ar      1 UNK         0.0000 
     29 N29         6.3471   23.2745    7.0371 N.ar      1 UNK         0.0000 
     30 O30         6.9932   19.6874    6.7853 O.3       1 UNK         0.0000 
     31 H31         6.5379   24.9767    3.1488 H         1 UNK         0.0000 
     32 H32         6.8704   26.6452    3.6403 H         1 UNK         0.0000 
     33 H33         7.7374   25.3094    4.4087 H         1 UNK         0.0000 
     34 H34         4.9713   24.8901    4.8349 H         1 UNK         0.0000 
     35 H35         1.1480   25.5725    9.7269 H         1 UNK         0.0000 
     36 H36         0.5368   27.9929    9.6417 H         1 UNK         0.0000 
     37 H37         4.2039   28.7231    5.7998 H         1 UNK         0.0000 
     38 H38         3.3727   30.0437    6.5593 H         1 UNK         0.0000 
     39 H39         6.4381   29.6316    5.6416 H         1 UNK         0.0000 
     40 H40         5.4509   31.0521    5.7757 H         1 UNK         0.0000 
     41 H41         8.1010   30.4798    7.0365 H         1 UNK         0.0000 
     42 H42         7.3570   32.0416    6.6986 H         1 UNK         0.0000 
     43 H43         7.2361   33.2795    8.7071 H         1 UNK         0.0000 
     44 H44         6.1345   32.7170   10.0420 H         1 UNK         0.0000 
     45 H45         7.0415   30.0035   10.4414 H         1 UNK         0.0000 
     46 H46         8.3911   29.8701    9.2420 H         1 UNK         0.0000 
     47 H47         4.4706   31.3318    8.2622 H         1 UNK         0.0000 
     48 H48         4.8586   30.0588    9.3699 H         1 UNK         0.0000 
     49 H49         1.2338   30.1147    9.1421 H         1 UNK         0.0000 
     50 H50         3.2509   22.0902    7.7529 H         1 UNK         0.0000 
     51 H51         4.4294   19.9259    7.4071 H         1 UNK         0.0000 
     52 H52         8.0193   22.1379    6.5911 H         1 UNK         0.0000 
     53 H53         7.9284   19.8188    6.6181 H         1 UNK         0.0000 
@<TRIPOS>BOND
     1    1    2 1    
     2    1   31 1    
     3    1   32 1    
     4    1   33 1    
     5    2    3 am   BACKBONE|DICT|INTERRES
     6    2   34 1    
     7    3    4 2    
     8    3    5 1    
     9    5   13 1    
    10    5    6 2    
    11    6    7 1    
    12    6   24 1    
    13    7    8 1    
    14    8   13 ar   
    15    8    9 ar   
    16    9   10 ar   
    17    9   35 1    
    18   10   11 ar   
    19   10   36 1    
    20   11   12 ar   
    21   11   23 1    
    22   12   13 ar   
    23   12   14 1    
    24   14   15 1    
    25   14   37 1    
    26   14   38 1    
    27   15   22 1    
    28   15   16 1    
    29   16   17 1    
    30   16   39 1    
    31   16   40 1    
    32   17   18 1    
    33   17   41 1    
    34   17   42 1    
    35   18   21 1    
    36   18   19 1    
    37   18   22 1    
    38   19   20 1    
    39   19   43 1    
    40   19   44 1    
    41   20   21 1    
    42   21   45 1    
    43   21   46 1    
    44   22   47 1    
    45   22   48 1    
    46   23   49 1    
    47   24   29 ar   
    48   24   25 ar   
    49   25   26 ar   
    50   25   50 1    
    51   26   27 ar   
    52   26   51 1    
    53   27   28 ar   
    54   27   30 1    
    55   28   29 ar   
    56   28   52 1    
    57   30   53 1    
@<TRIPOS>SUBSTRUCTURE
     1 UNK         1 GROUP             0       ****    0 ROOT    
