@<TRIPOS>MOLECULE
/home/yujie/leadopt/data/result/selection/PSK13/lig_6.sdf:1
54   58    1
SMALL
USER_CHARGES


@<TRIPOS>ATOM
      1 C1          6.7506   25.6197    3.8542 C.3       1 UNK         0.0000 
      2 N2          5.7108   25.5741    4.8748 N.am      1 UNK         0.0000 
      3 C3          5.8116   26.1375    6.0857 C.2       1 UNK         0.0000 
      4 O4          6.7929   26.7629    6.4773 O.2       1 UNK         0.0000 
      5 C5          4.6871   25.8872    6.9405 C.2       1 UNK         0.0000 
      6 C6          4.3456   24.6216    7.4518 C.2       1 UNK         0.0000 
      7 O7          3.2407   24.6839    8.2455 O.3       1 UNK         0.0000 
      8 C8          2.8412   25.9776    8.2588 C.ar      1 UNK         0.0000 
      9 C9          1.7362   26.4554    8.9655 C.ar      1 UNK         0.0000 
     10 C10         1.4709   27.8167    8.8598 C.ar      1 UNK         0.0000 
     11 C11         2.2653   28.6553    8.0796 C.ar      1 UNK         0.0000 
     12 C12         3.3813   28.1725    7.3697 C.ar      1 UNK         0.0000 
     13 C13         3.6854   26.7917    7.4654 C.ar      1 UNK         0.0000 
     14 C14         4.2336   29.1350    6.5573 C.3       1 UNK         0.0000 
     15 N15         5.4293   29.5065    7.3033 N.3       1 UNK         0.0000 
     16 C16         6.4755   30.0100    6.4413 C.3       1 UNK         0.0000 
     17 C17         7.5244   30.5729    7.3853 C.3       1 UNK         0.0000 
     18 C18         6.6926   31.0323    8.5937 C.3       1 UNK         0.0000 
     19 C19         6.9324   32.4791    9.0466 C.3       1 UNK         0.0000 
     20 O20         7.9253   31.9807   10.0380 O.3       1 UNK         0.0000 
     21 C21         7.2670   30.6452    9.9597 C.3       1 UNK         0.0000 
     22 C22         5.2595   30.5730    8.2834 C.3       1 UNK         0.0000 
     23 O23         1.9276   29.9807    8.0416 O.3       1 UNK         0.0000 
     24 C24         4.9377   23.2550    7.3460 C.ar      1 UNK         0.0000 
     25 C25         6.3161   23.0788    7.1906 C.ar      1 UNK         0.0000 
     26 C26         6.8476   21.7983    7.0945 C.ar      1 UNK         0.0000 
     27 C27         6.0046   20.6953    7.1801 C.ar      1 UNK         0.0000 
     28 C28         4.6322   20.8542    7.3443 C.ar      1 UNK         0.0000 
     29 C29         4.0994   22.1366    7.4250 C.ar      1 UNK         0.0000 
     30 O30         6.5345   19.4427    7.0854 O.3       1 UNK         0.0000 
     31 H31         6.6777   26.5319    3.2613 H         1 UNK         0.0000 
     32 H32         7.7464   25.5773    4.2954 H         1 UNK         0.0000 
     33 H33         6.6474   24.7677    3.1827 H         1 UNK         0.0000 
     34 H34         4.8320   25.1450    4.6242 H         1 UNK         0.0000 
     35 H35         1.1234   25.7983    9.5656 H         1 UNK         0.0000 
     36 H36         0.6316   28.2349    9.3981 H         1 UNK         0.0000 
     37 H37         4.5274   28.6291    5.6358 H         1 UNK         0.0000 
     38 H38         3.6730   30.0194    6.2506 H         1 UNK         0.0000 
     39 H39         6.8583   29.1840    5.8443 H         1 UNK         0.0000 
     40 H40         6.0776   30.7386    5.7344 H         1 UNK         0.0000 
     41 H41         8.2459   29.7952    7.6410 H         1 UNK         0.0000 
     42 H42         8.0733   31.3842    6.9069 H         1 UNK         0.0000 
     43 H43         7.3911   33.1546    8.3258 H         1 UNK         0.0000 
     44 H44         6.1342   32.9547    9.6154 H         1 UNK         0.0000 
     45 H45         6.5371   30.5818   10.7728 H         1 UNK         0.0000 
     46 H46         8.0061   29.8445    9.9862 H         1 UNK         0.0000 
     47 H47         4.6536   31.3757    7.8599 H         1 UNK         0.0000 
     48 H48         4.7010   30.2248    9.1543 H         1 UNK         0.0000 
     49 H49         1.4057   30.2420    8.8157 H         1 UNK         0.0000 
     50 H50         6.9843   23.9259    7.1479 H         1 UNK         0.0000 
     51 H51         7.9114   21.6599    6.9687 H         1 UNK         0.0000 
     52 H52         3.9805   19.9942    7.4048 H         1 UNK         0.0000 
     53 H53         3.0326   22.2573    7.5481 H         1 UNK         0.0000 
     54 H54         5.8514   18.7696    7.0112 H         1 UNK         0.0000 
@<TRIPOS>BOND
     1    1    2 1    
     2    1   31 1    
     3    1   32 1    
     4    1   33 1    
     5    2    3 am   BACKBONE|DICT|INTERRES
     6    2   34 1    
     7    3    4 2    
     8    3    5 1    
     9    5   13 1    
    10    5    6 2    
    11    6    7 1    
    12    6   24 1    
    13    7    8 1    
    14    8   13 ar   
    15    8    9 ar   
    16    9   10 ar   
    17    9   35 1    
    18   10   11 ar   
    19   10   36 1    
    20   11   12 ar   
    21   11   23 1    
    22   12   13 ar   
    23   12   14 1    
    24   14   15 1    
    25   14   37 1    
    26   14   38 1    
    27   15   22 1    
    28   15   16 1    
    29   16   17 1    
    30   16   39 1    
    31   16   40 1    
    32   17   18 1    
    33   17   41 1    
    34   17   42 1    
    35   18   21 1    
    36   18   19 1    
    37   18   22 1    
    38   19   20 1    
    39   19   43 1    
    40   19   44 1    
    41   20   21 1    
    42   21   45 1    
    43   21   46 1    
    44   22   47 1    
    45   22   48 1    
    46   23   49 1    
    47   24   29 ar   
    48   24   25 ar   
    49   25   26 ar   
    50   25   50 1    
    51   26   27 ar   
    52   26   51 1    
    53   27   28 ar   
    54   27   30 1    
    55   28   29 ar   
    56   28   52 1    
    57   29   53 1    
    58   30   54 1    
@<TRIPOS>SUBSTRUCTURE
     1 UNK         1 GROUP             0       ****    0 ROOT    
