@<TRIPOS>MOLECULE
/home/yujie/leadopt/data/result/selection/PSK13/lig_16.sdf:1
50   53    1
SMALL
USER_CHARGES


@<TRIPOS>ATOM
      1 C1          6.8468   25.3630    3.8305 C.3       1 UNK         0.0000 
      2 N2          5.8065   25.3679    4.8481 N.am      1 UNK         0.0000 
      3 C3          5.8229   26.1395    5.9419 C.2       1 UNK         0.0000 
      4 O4          6.6901   26.9723    6.2021 O.2       1 UNK         0.0000 
      5 C5          4.7315   25.8737    6.8280 C.2       1 UNK         0.0000 
      6 C6          4.4573   24.6062    7.3821 C.2       1 UNK         0.0000 
      7 O7          3.3578   24.6425    8.1815 O.3       1 UNK         0.0000 
      8 C8          2.9262   25.9265    8.1925 C.ar      1 UNK         0.0000 
      9 C9          1.8267   26.3754    8.9260 C.ar      1 UNK         0.0000 
     10 C10         1.5400   27.7333    8.8409 C.ar      1 UNK         0.0000 
     11 C11         2.3027   28.5929    8.0521 C.ar      1 UNK         0.0000 
     12 C12         3.4120   28.1458    7.3030 C.ar      1 UNK         0.0000 
     13 C13         3.7350   26.7648    7.3815 C.ar      1 UNK         0.0000 
     14 C14         4.1937   29.1630    6.4666 C.3       1 UNK         0.0000 
     15 N15         4.7092   30.3383    7.3049 N.4       1 UNK         0.0000 
     16 C16         5.7760   29.9792    8.3494 C.3       1 UNK         0.0000 
     17 C17         6.7706   31.1440    8.4327 C.3       1 UNK         0.0000 
     18 O18         7.3351   31.5015    7.1966 O.3       1 UNK         0.0000 
     19 C19         6.5611   32.2149    9.4741 C.3       1 UNK         0.0000 
     20 C20         7.6597   31.1866    9.6419 C.3       1 UNK         0.0000 
     21 O21         1.9728   29.8144    8.0319 O.co2     1 UNK         0.0000 
     22 C22         5.1130   23.2614    7.3001 C.ar      1 UNK         0.0000 
     23 C23         6.5029   23.1553    7.1884 C.ar      1 UNK         0.0000 
     24 C24         7.1089   21.9050    7.1201 C.ar      1 UNK         0.0000 
     25 C25         6.3273   20.7544    7.1921 C.ar      1 UNK         0.0000 
     26 C26         4.9423   20.8444    7.3032 C.ar      1 UNK         0.0000 
     27 C27         4.3355   22.0978    7.3570 C.ar      1 UNK         0.0000 
     28 O28         6.9316   19.5269    7.1780 O.3       1 UNK         0.0000 
     29 H29         6.8128   26.2768    3.2428 H         1 UNK         0.0000 
     30 H30         7.8366   25.2766    4.2803 H         1 UNK         0.0000 
     31 H31         6.7052   24.5196    3.1552 H         1 UNK         0.0000 
     32 H32         5.0048   24.7735    4.7010 H         1 UNK         0.0000 
     33 H33         1.2408   25.7050    9.5381 H         1 UNK         0.0000 
     34 H34         0.7127   28.1442    9.4025 H         1 UNK         0.0000 
     35 H35         5.0608   28.7731    5.9433 H         1 UNK         0.0000 
     36 H36         3.5527   29.6668    5.7423 H         1 UNK         0.0000 
     37 H37         5.0890   31.0503    6.6962 H         1 UNK         0.0000 
     38 H38         5.2239   29.7874    9.2718 H         1 UNK         0.0000 
     39 H39         6.2589   29.0563    8.0260 H         1 UNK         0.0000 
     40 H40         7.9868   30.8362    6.9631 H         1 UNK         0.0000 
     41 H41         6.9343   33.2290    9.3263 H         1 UNK         0.0000 
     42 H42         5.7363   32.1552   10.1861 H         1 UNK         0.0000 
     43 H43         7.5166   30.4641   10.4410 H         1 UNK         0.0000 
     44 H44         8.6701   31.5933    9.5949 H         1 UNK         0.0000 
     45 H45         7.1228   24.0393    7.1588 H         1 UNK         0.0000 
     46 H46         8.1837   21.8368    7.0373 H         1 UNK         0.0000 
     47 H47         4.3450   19.9450    7.3545 H         1 UNK         0.0000 
     48 H48         3.2607   22.1619    7.4456 H         1 UNK         0.0000 
     49 H49         7.8876   19.5858    7.2202 H         1 UNK         0.0000 
     50 H50         3.8962   30.7230    7.7786 H         1 UNK         0.0000 
@<TRIPOS>BOND
     1    1    2 1    
     2    1   29 1    
     3    1   30 1    
     4    1   31 1    
     5    2    3 am   BACKBONE|DICT|INTERRES
     6    2   32 1    
     7    3    4 2    
     8    3    5 1    
     9    5   13 1    
    10    5    6 2    
    11    6    7 1    
    12    6   22 1    
    13    7    8 1    
    14    8   13 ar   
    15    8    9 ar   
    16    9   10 ar   
    17    9   33 1    
    18   10   11 ar   
    19   10   34 1    
    20   11   12 ar   
    21   11   21 1    
    22   12   13 ar   
    23   12   14 1    
    24   14   15 1    
    25   14   35 1    
    26   14   36 1    
    27   15   16 1    
    28   15   37 1    
    29   15   50 1    
    30   16   17 1    
    31   16   38 1    
    32   16   39 1    
    33   17   20 1    
    34   17   18 1    
    35   17   19 1    
    36   18   40 1    
    37   19   20 1    
    38   19   41 1    
    39   19   42 1    
    40   20   43 1    
    41   20   44 1    
    42   22   27 ar   
    43   22   23 ar   
    44   23   24 ar   
    45   23   45 1    
    46   24   25 ar   
    47   24   46 1    
    48   25   26 ar   
    49   25   28 1    
    50   26   27 ar   
    51   26   47 1    
    52   27   48 1    
    53   28   49 1    
@<TRIPOS>SUBSTRUCTURE
     1 UNK         1 GROUP             0       ****    0 ROOT    
