@<TRIPOS>MOLECULE
/home/yujie/leadopt/data/result/selection/PSK13/lig_26.sdf:1
52   56    1
SMALL
USER_CHARGES


@<TRIPOS>ATOM
      1 C1          5.9345   25.3562    5.0950 C.3       1 UNK         0.0000 
      2 C2          5.6308   26.1925    6.3328 C.2       1 UNK         0.0000 
      3 O3          6.2981   27.2037    6.5373 O.2       1 UNK         0.0000 
      4 C4          4.4888   25.8114    7.1558 C.2       1 UNK         0.0000 
      5 C5          4.1762   24.5205    7.6065 C.2       1 UNK         0.0000 
      6 O6          3.0417   24.5216    8.3553 O.3       1 UNK         0.0000 
      7 C7          2.5776   25.7943    8.3679 C.ar      1 UNK         0.0000 
      8 C8          1.3936   26.1909    8.9849 C.ar      1 UNK         0.0000 
      9 C9          1.0332   27.5214    8.8252 C.ar      1 UNK         0.0000 
     10 C10         1.8426   28.4190    8.1316 C.ar      1 UNK         0.0000 
     11 C11         3.0733   28.0418    7.5617 C.ar      1 UNK         0.0000 
     12 C12         3.4295   26.6701    7.6417 C.ar      1 UNK         0.0000 
     13 C13         3.9789   29.1166    6.9525 C.3       1 UNK         0.0000 
     14 N14         5.0444   29.5319    7.9810 N.4       1 UNK         0.0000 
     15 C15         4.4483   30.1780    9.2420 C.3       1 UNK         0.0000 
     16 C16         5.6491   30.7505    9.9724 C.3       1 UNK         0.0000 
     17 C17         6.7046   31.0176    8.8879 C.3       1 UNK         0.0000 
     18 C18         7.3339   32.4108    8.9491 C.3       1 UNK         0.0000 
     19 O19         8.5552   31.8424    9.5939 O.3       1 UNK         0.0000 
     20 C20         8.1125   30.4792    9.2061 C.3       1 UNK         0.0000 
     21 C21         6.0985   30.5575    7.5467 C.3       1 UNK         0.0000 
     22 O22         1.4300   29.6067    8.0401 O.co2     1 UNK         0.0000 
     23 C23         4.8138   23.1797    7.4563 C.ar      1 UNK         0.0000 
     24 C24         6.2027   23.0508    7.3802 C.ar      1 UNK         0.0000 
     25 C25         6.7761   21.7972    7.1988 C.ar      1 UNK         0.0000 
     26 C26         5.9627   20.6701    7.1191 C.ar      1 UNK         0.0000 
     27 C27         4.5780   20.7823    7.2182 C.ar      1 UNK         0.0000 
     28 C28         4.0048   22.0390    7.3844 C.ar      1 UNK         0.0000 
     29 O29         6.5344   19.4426    6.9479 O.3       1 UNK         0.0000 
     30 H30         5.0917   24.7143    4.8421 H         1 UNK         0.0000 
     31 H31         6.1218   26.0145    4.2463 H         1 UNK         0.0000 
     32 H32         6.8180   24.7429    5.2596 H         1 UNK         0.0000 
     33 H33         0.7728   25.4877    9.5226 H         1 UNK         0.0000 
     34 H34         0.1059   27.8821    9.2457 H         1 UNK         0.0000 
     35 H35         4.4987   28.7905    6.0534 H         1 UNK         0.0000 
     36 H36         3.4629   30.0405    6.6877 H         1 UNK         0.0000 
     37 H37         3.7426   30.9376    8.8942 H         1 UNK         0.0000 
     38 H38         3.8758   29.4446    9.8073 H         1 UNK         0.0000 
     39 H39         5.3466   31.6522   10.5085 H         1 UNK         0.0000 
     40 H40         5.9917   30.0291   10.7174 H         1 UNK         0.0000 
     41 H41         7.6198   32.8518    7.9923 H         1 UNK         0.0000 
     42 H42         6.8710   33.1353    9.6198 H         1 UNK         0.0000 
     43 H43         8.2018   29.8057   10.0557 H         1 UNK         0.0000 
     44 H44         8.7170   30.1591    8.3569 H         1 UNK         0.0000 
     45 H45         6.7769   30.0611    6.8508 H         1 UNK         0.0000 
     46 H46         5.5581   31.3443    7.0162 H         1 UNK         0.0000 
     47 H47         6.8446   23.9152    7.4560 H         1 UNK         0.0000 
     48 H48         7.8489   21.6955    7.1284 H         1 UNK         0.0000 
     49 H49         3.9498   19.9037    7.1633 H         1 UNK         0.0000 
     50 H50         2.9291   22.1253    7.4451 H         1 UNK         0.0000 
     51 H51         5.8671   18.7555    6.8429 H         1 UNK         0.0000 
     52 H52         5.5249   28.6780    8.2401 H         1 UNK         0.0000 
@<TRIPOS>BOND
     1    1    2 1    
     2    1   30 1    
     3    1   31 1    
     4    1   32 1    
     5    2    3 2    
     6    2    4 1    
     7    4   12 1    
     8    4    5 2    
     9    5    6 1    
    10    5   23 1    
    11    6    7 1    
    12    7   12 ar   
    13    7    8 ar   
    14    8    9 ar   
    15    8   33 1    
    16    9   10 ar   
    17    9   34 1    
    18   10   11 ar   
    19   10   22 1    
    20   11   12 ar   
    21   11   13 1    
    22   13   14 1    
    23   13   35 1    
    24   13   36 1    
    25   14   21 1    
    26   14   15 1    
    27   14   52 1    
    28   15   16 1    
    29   15   37 1    
    30   15   38 1    
    31   16   17 1    
    32   16   39 1    
    33   16   40 1    
    34   17   20 1    
    35   17   18 1    
    36   17   21 1    
    37   18   19 1    
    38   18   41 1    
    39   18   42 1    
    40   19   20 1    
    41   20   43 1    
    42   20   44 1    
    43   21   45 1    
    44   21   46 1    
    45   23   28 ar   
    46   23   24 ar   
    47   24   25 ar   
    48   24   47 1    
    49   25   26 ar   
    50   25   48 1    
    51   26   27 ar   
    52   26   29 1    
    53   27   28 ar   
    54   27   49 1    
    55   28   50 1    
    56   29   51 1    
@<TRIPOS>SUBSTRUCTURE
     1 UNK         1 GROUP             0       ****    0 ROOT    
