@<TRIPOS>MOLECULE
/home/yujie/leadopt/data/result/selection/PSK13/lig_29.sdf:1
54   58    1
SMALL
USER_CHARGES


@<TRIPOS>ATOM
      1 C1          6.7728   25.8874    4.0996 C.3       1 UNK         0.0000 
      2 N2          5.7675   25.6189    5.1193 N.am      1 UNK         0.0000 
      3 C3          5.7350   26.2062    6.3216 C.2       1 UNK         0.0000 
      4 O4          6.5460   27.0418    6.7159 O.2       1 UNK         0.0000 
      5 C5          4.6256   25.8002    7.1275 C.2       1 UNK         0.0000 
      6 C6          4.3634   24.4844    7.5598 C.2       1 UNK         0.0000 
      7 O7          3.2374   24.4377    8.3284 O.3       1 UNK         0.0000 
      8 C8          2.7267   25.6923    8.3642 C.ar      1 UNK         0.0000 
      9 C9          1.5380   26.0571    8.9979 C.ar      1 UNK         0.0000 
     10 C10         1.1188   27.3705    8.8157 C.ar      1 UNK         0.0000 
     11 C11         1.8819   28.2855    8.0912 C.ar      1 UNK         0.0000 
     12 C12         3.1434   27.9532    7.5629 C.ar      1 UNK         0.0000 
     13 C13         3.5385   26.5968    7.6405 C.ar      1 UNK         0.0000 
     14 C14         4.0383   29.0469    6.9759 C.3       1 UNK         0.0000 
     15 N15         5.0511   29.5101    8.0401 N.4       1 UNK         0.0000 
     16 C16         4.4014   30.1921    9.2578 C.3       1 UNK         0.0000 
     17 C17         5.5641   30.8554    9.9868 C.3       1 UNK         0.0000 
     18 C18         6.6719   31.0482    8.9315 C.3       1 UNK         0.0000 
     19 C19         7.3541   32.4255    8.9478 C.3       1 UNK         0.0000 
     20 O20         8.5444   31.8423    9.6368 O.3       1 UNK         0.0000 
     21 C21         8.0505   30.4762    9.3145 C.3       1 UNK         0.0000 
     22 C22         6.1012   30.5373    7.5955 C.3       1 UNK         0.0000 
     23 O23         1.3981   29.4356    7.9112 O.co2     1 UNK         0.0000 
     24 C24         5.0209   23.1519    7.3484 C.ar      1 UNK         0.0000 
     25 C25         4.2435   21.9857    7.3992 C.ar      1 UNK         0.0000 
     26 C26         4.8166   20.7346    7.1740 C.ar      1 UNK         0.0000 
     27 C27         6.1761   20.6348    6.8875 C.ar      1 UNK         0.0000 
     28 C28         6.9642   21.7830    6.8413 C.ar      1 UNK         0.0000 
     29 C29         6.3918   23.0336    7.0841 C.ar      1 UNK         0.0000 
     30 O30         8.3017   21.6751    6.5728 O.3       1 UNK         0.0000 
     31 H31         7.0914   26.9322    4.1061 H         1 UNK         0.0000 
     32 H32         7.6499   25.2590    4.2599 H         1 UNK         0.0000 
     33 H33         6.3672   25.6628    3.1129 H         1 UNK         0.0000 
     34 H34         5.0401   24.9558    4.8949 H         1 UNK         0.0000 
     35 H35         0.9454   25.3468    9.5538 H         1 UNK         0.0000 
     36 H36         0.1776   27.6929    9.2371 H         1 UNK         0.0000 
     37 H37         4.6185   28.7125    6.1172 H         1 UNK         0.0000 
     38 H38         3.5027   29.9470    6.6677 H         1 UNK         0.0000 
     39 H39         3.6925   30.9120    8.8419 H         1 UNK         0.0000 
     40 H40         3.8331   29.4682    9.8418 H         1 UNK         0.0000 
     41 H41         5.2257   31.8008   10.4144 H         1 UNK         0.0000 
     42 H42         5.8813   30.2272   10.8208 H         1 UNK         0.0000 
     43 H43         7.6688   32.8151    7.9790 H         1 UNK         0.0000 
     44 H44         6.9075   33.1910    9.5830 H         1 UNK         0.0000 
     45 H45         8.0959   29.8415   10.1947 H         1 UNK         0.0000 
     46 H46         8.6600   30.0847    8.4976 H         1 UNK         0.0000 
     47 H47         6.8008   30.0263    6.9317 H         1 UNK         0.0000 
     48 H48         5.5650   31.2998    7.0253 H         1 UNK         0.0000 
     49 H49         3.1837   22.0434    7.6018 H         1 UNK         0.0000 
     50 H50         4.2063   19.8433    7.2107 H         1 UNK         0.0000 
     51 H51         6.6186   19.6661    6.7083 H         1 UNK         0.0000 
     52 H52         7.0169   23.9131    7.0587 H         1 UNK         0.0000 
     53 H53         8.7552   22.5198    6.5613 H         1 UNK         0.0000 
     54 H54         5.5383   28.6752    8.3451 H         1 UNK         0.0000 
@<TRIPOS>BOND
     1    1    2 1    
     2    1   31 1    
     3    1   32 1    
     4    1   33 1    
     5    2    3 am   BACKBONE|DICT|INTERRES
     6    2   34 1    
     7    3    4 2    
     8    3    5 1    
     9    5   13 1    
    10    5    6 2    
    11    6    7 1    
    12    6   24 1    
    13    7    8 1    
    14    8   13 ar   
    15    8    9 ar   
    16    9   10 ar   
    17    9   35 1    
    18   10   11 ar   
    19   10   36 1    
    20   11   12 ar   
    21   11   23 1    
    22   12   13 ar   
    23   12   14 1    
    24   14   15 1    
    25   14   37 1    
    26   14   38 1    
    27   15   22 1    
    28   15   16 1    
    29   15   54 1    
    30   16   17 1    
    31   16   39 1    
    32   16   40 1    
    33   17   18 1    
    34   17   41 1    
    35   17   42 1    
    36   18   21 1    
    37   18   19 1    
    38   18   22 1    
    39   19   20 1    
    40   19   43 1    
    41   19   44 1    
    42   20   21 1    
    43   21   45 1    
    44   21   46 1    
    45   22   47 1    
    46   22   48 1    
    47   24   29 ar   
    48   24   25 ar   
    49   25   26 ar   
    50   25   49 1    
    51   26   27 ar   
    52   26   50 1    
    53   27   28 ar   
    54   27   51 1    
    55   28   29 ar   
    56   28   30 1    
    57   29   52 1    
    58   30   53 1    
@<TRIPOS>SUBSTRUCTURE
     1 UNK         1 GROUP             0       ****    0 ROOT    
