@<TRIPOS>MOLECULE
/home/yujie/leadopt/data/result/selection/PSK13/lig_45.sdf:1
51   55    1
SMALL
USER_CHARGES


@<TRIPOS>ATOM
      1 C1          5.9715   25.3499    5.1015 C.3       1 UNK         0.0000 
      2 C2          5.6623   26.1912    6.3333 C.2       1 UNK         0.0000 
      3 O3          6.3069   27.2205    6.5136 O.2       1 UNK         0.0000 
      4 C4          4.5325   25.7965    7.1680 C.2       1 UNK         0.0000 
      5 C5          4.2457   24.5051    7.6345 C.2       1 UNK         0.0000 
      6 O6          3.1251   24.4965    8.4071 O.3       1 UNK         0.0000 
      7 C7          2.6333   25.7558    8.3991 C.ar      1 UNK         0.0000 
      8 C8          1.4504   26.1385    9.0287 C.ar      1 UNK         0.0000 
      9 C9          1.0369   27.4440    8.8149 C.ar      1 UNK         0.0000 
     10 C10         1.8066   28.3384    8.0732 C.ar      1 UNK         0.0000 
     11 C11         3.0661   27.9959    7.5409 C.ar      1 UNK         0.0000 
     12 C12         3.4542   26.6367    7.6415 C.ar      1 UNK         0.0000 
     13 C13         3.9584   29.0900    6.9449 C.3       1 UNK         0.0000 
     14 N14         5.0244   29.5045    7.9766 N.4       1 UNK         0.0000 
     15 C15         4.4380   30.1686    9.2346 C.3       1 UNK         0.0000 
     16 C16         5.6412   30.7626    9.9445 C.3       1 UNK         0.0000 
     17 C17         6.6974   31.0043    8.8513 C.3       1 UNK         0.0000 
     18 C18         7.3340   32.3973    8.8743 C.3       1 UNK         0.0000 
     19 O19         8.5502   31.8425    9.5365 O.3       1 UNK         0.0000 
     20 C20         8.1054   30.4719    9.1795 C.3       1 UNK         0.0000 
     21 C21         6.0854   30.5159    7.5228 C.3       1 UNK         0.0000 
     22 O22         1.3247   29.4815    7.8852 O.co2     1 UNK         0.0000 
     23 C23         4.9164   23.1834    7.4970 C.ar      1 UNK         0.0000 
     24 C24         6.3062   23.0616    7.4079 C.ar      1 UNK         0.0000 
     25 C25         6.8550   21.7944    7.2248 C.ar      1 UNK         0.0000 
     26 C26         6.0125   20.6884    7.1472 C.ar      1 UNK         0.0000 
     27 C27         4.6366   20.8797    7.2731 C.ar      1 UNK         0.0000 
     28 N28         4.0844   22.1060    7.4480 N.ar      1 UNK         0.0000 
     29 O29         6.5341   19.4424    6.9541 O.3       1 UNK         0.0000 
     30 H30         5.1478   24.6743    4.8731 H         1 UNK         0.0000 
     31 H31         6.1239   25.9994    4.2379 H         1 UNK         0.0000 
     32 H32         6.8793   24.7677    5.2549 H         1 UNK         0.0000 
     33 H33         0.8593   25.4417    9.6027 H         1 UNK         0.0000 
     34 H34         0.0970   27.7796    9.2285 H         1 UNK         0.0000 
     35 H35         4.4793   28.7791    6.0401 H         1 UNK         0.0000 
     36 H36         3.4314   30.0120    6.6936 H         1 UNK         0.0000 
     37 H37         3.7342   30.9237    8.8729 H         1 UNK         0.0000 
     38 H38         3.8630   29.4435    9.8100 H         1 UNK         0.0000 
     39 H39         5.3412   31.6810   10.4547 H         1 UNK         0.0000 
     40 H40         5.9857   30.0670   10.7099 H         1 UNK         0.0000 
     41 H41         7.6252   32.8076    7.9071 H         1 UNK         0.0000 
     42 H42         6.8760   33.1427    9.5243 H         1 UNK         0.0000 
     43 H43         8.1933   29.8168   10.0430 H         1 UNK         0.0000 
     44 H44         8.7089   30.1276    8.3379 H         1 UNK         0.0000 
     45 H45         6.7631   30.0025    6.8383 H         1 UNK         0.0000 
     46 H46         5.5491   31.2939    6.9746 H         1 UNK         0.0000 
     47 H47         6.9506   23.9255    7.4698 H         1 UNK         0.0000 
     48 H48         7.9246   21.6707    7.1429 H         1 UNK         0.0000 
     49 H49         3.9525   20.0458    7.2273 H         1 UNK         0.0000 
     50 H50         5.8513   18.7723    6.8415 H         1 UNK         0.0000 
     51 H51         5.4989   28.6489    8.2403 H         1 UNK         0.0000 
@<TRIPOS>BOND
     1    1    2 1    
     2    1   30 1    
     3    1   31 1    
     4    1   32 1    
     5    2    3 2    
     6    2    4 1    
     7    4   12 1    
     8    4    5 2    
     9    5    6 1    
    10    5   23 1    
    11    6    7 1    
    12    7   12 ar   
    13    7    8 ar   
    14    8    9 ar   
    15    8   33 1    
    16    9   10 ar   
    17    9   34 1    
    18   10   11 ar   
    19   10   22 1    
    20   11   12 ar   
    21   11   13 1    
    22   13   14 1    
    23   13   35 1    
    24   13   36 1    
    25   14   21 1    
    26   14   15 1    
    27   14   51 1    
    28   15   16 1    
    29   15   37 1    
    30   15   38 1    
    31   16   17 1    
    32   16   39 1    
    33   16   40 1    
    34   17   20 1    
    35   17   18 1    
    36   17   21 1    
    37   18   19 1    
    38   18   41 1    
    39   18   42 1    
    40   19   20 1    
    41   20   43 1    
    42   20   44 1    
    43   21   45 1    
    44   21   46 1    
    45   23   28 ar   
    46   23   24 ar   
    47   24   25 ar   
    48   24   47 1    
    49   25   26 ar   
    50   25   48 1    
    51   26   27 ar   
    52   26   29 1    
    53   27   28 ar   
    54   27   49 1    
    55   29   50 1    
@<TRIPOS>SUBSTRUCTURE
     1 UNK         1 GROUP             0       ****    0 ROOT    
