@<TRIPOS>MOLECULE
/home/yujie/leadopt/data/result/selection/PSK13/lig_22.sdf:1
52   55    1
SMALL
USER_CHARGES


@<TRIPOS>ATOM
      1 C1          6.7410   25.5051    4.0553 C.3       1 UNK         0.0000 
      2 N2          5.7342   25.3890    5.1011 N.am      1 UNK         0.0000 
      3 C3          5.6939   26.1432    6.2065 C.2       1 UNK         0.0000 
      4 O4          6.4949   27.0388    6.4667 O.2       1 UNK         0.0000 
      5 C5          4.5879   25.8374    7.0694 C.2       1 UNK         0.0000 
      6 C6          4.2797   24.5609    7.5789 C.2       1 UNK         0.0000 
      7 O7          3.1678   24.5890    8.3672 O.3       1 UNK         0.0000 
      8 C8          2.7284   25.8694    8.3755 C.ar      1 UNK         0.0000 
      9 C9          1.5763   26.3121    9.0259 C.ar      1 UNK         0.0000 
     10 C10         1.2637   27.6595    8.8706 C.ar      1 UNK         0.0000 
     11 C11         2.0828   28.5252    8.1481 C.ar      1 UNK         0.0000 
     12 C12         3.2769   28.0930    7.5434 C.ar      1 UNK         0.0000 
     13 C13         3.5820   26.7128    7.6202 C.ar      1 UNK         0.0000 
     14 C14         4.1693   29.1025    6.8267 C.3       1 UNK         0.0000 
     15 N15         5.3328   29.6141    7.7097 N.4       1 UNK         0.0000 
     16 C16         6.2555   30.4927    6.8423 C.3       1 UNK         0.0000 
     17 C17         7.4534   30.9682    7.6702 C.3       1 UNK         0.0000 
     18 C18         7.0584   31.6658    8.9828 C.3       1 UNK         0.0000 
     19 F19         8.1595   31.7554    9.7305 F         1 UNK         0.0000 
     20 C20         5.9850   30.9056    9.7854 C.3       1 UNK         0.0000 
     21 C21         4.8058   30.3957    8.9384 C.3       1 UNK         0.0000 
     22 O22         1.7176   29.7278    8.0398 O.co2     1 UNK         0.0000 
     23 C23         4.8914   23.2069    7.4246 C.ar      1 UNK         0.0000 
     24 C24         4.0693   22.0731    7.4413 C.ar      1 UNK         0.0000 
     25 C25         4.6186   20.8078    7.2655 C.ar      1 UNK         0.0000 
     26 C26         5.9903   20.6786    7.0655 C.ar      1 UNK         0.0000 
     27 C27         6.8174   21.7966    7.0537 C.ar      1 UNK         0.0000 
     28 C28         6.2695   23.0587    7.2469 C.ar      1 UNK         0.0000 
     29 O29         6.5351   19.4425    6.8896 O.3       1 UNK         0.0000 
     30 H30         6.8679   24.5454    3.5529 H         1 UNK         0.0000 
     31 H31         6.4322   26.2412    3.3136 H         1 UNK         0.0000 
     32 H32         7.7119   25.8027    4.4569 H         1 UNK         0.0000 
     33 H33         5.0110   24.6956    4.9776 H         1 UNK         0.0000 
     34 H34         0.9479   25.6367    9.5883 H         1 UNK         0.0000 
     35 H35         0.3689   28.0576    9.3294 H         1 UNK         0.0000 
     36 H36         4.6046   28.6736    5.9248 H         1 UNK         0.0000 
     37 H37         3.6375   29.9983    6.5016 H         1 UNK         0.0000 
     38 H38         6.5752   29.8549    6.0236 H         1 UNK         0.0000 
     39 H39         5.6579   31.3235    6.4588 H         1 UNK         0.0000 
     40 H40         8.1103   30.1221    7.8832 H         1 UNK         0.0000 
     41 H41         8.0393   31.6557    7.0612 H         1 UNK         0.0000 
     42 H42         6.7338   32.6882    8.7851 H         1 UNK         0.0000 
     43 H43         5.5839   31.5668   10.5550 H         1 UNK         0.0000 
     44 H44         6.4421   30.0724   10.3204 H         1 UNK         0.0000 
     45 H45         4.1839   31.2066    8.5624 H         1 UNK         0.0000 
     46 H46         4.1723   29.7309    9.5251 H         1 UNK         0.0000 
     47 H47         3.0016   22.1743    7.5760 H         1 UNK         0.0000 
     48 H48         3.9785   19.9361    7.2809 H         1 UNK         0.0000 
     49 H49         7.8814   21.6807    6.9086 H         1 UNK         0.0000 
     50 H50         6.9227   23.9192    7.2499 H         1 UNK         0.0000 
     51 H51         5.8578   18.7590    6.8411 H         1 UNK         0.0000 
     52 H52         5.8664   28.8122    8.0291 H         1 UNK         0.0000 
@<TRIPOS>BOND
     1    1    2 1    
     2    1   30 1    
     3    1   31 1    
     4    1   32 1    
     5    2    3 am   BACKBONE|DICT|INTERRES
     6    2   33 1    
     7    3    4 2    
     8    3    5 1    
     9    5   13 1    
    10    5    6 2    
    11    6    7 1    
    12    6   23 1    
    13    7    8 1    
    14    8   13 ar   
    15    8    9 ar   
    16    9   10 ar   
    17    9   34 1    
    18   10   11 ar   
    19   10   35 1    
    20   11   12 ar   
    21   11   22 1    
    22   12   13 ar   
    23   12   14 1    
    24   14   15 1    
    25   14   36 1    
    26   14   37 1    
    27   15   21 1    
    28   15   16 1    
    29   15   52 1    
    30   16   17 1    
    31   16   38 1    
    32   16   39 1    
    33   17   18 1    
    34   17   40 1    
    35   17   41 1    
    36   18   19 1    
    37   18   20 1    
    38   18   42 1    
    39   20   21 1    
    40   20   43 1    
    41   20   44 1    
    42   21   45 1    
    43   21   46 1    
    44   23   28 ar   
    45   23   24 ar   
    46   24   25 ar   
    47   24   47 1    
    48   25   26 ar   
    49   25   48 1    
    50   26   27 ar   
    51   26   29 1    
    52   27   28 ar   
    53   27   49 1    
    54   28   50 1    
    55   29   51 1    
@<TRIPOS>SUBSTRUCTURE
     1 UNK         1 GROUP             0       ****    0 ROOT    
