@<TRIPOS>MOLECULE
/home/yujie/leadopt/data/result/selection/PSK13/lig_25.sdf:1
58   63    1
SMALL
USER_CHARGES


@<TRIPOS>ATOM
      1 O1          6.9343   19.4423    6.8601 O.3       1 UNK         0.0000 
      2 C2          6.3450   20.6478    7.0914 C.ar      1 UNK         0.0000 
      3 C3          7.1415   21.7775    7.2415 C.ar      1 UNK         0.0000 
      4 C4          6.5461   23.0065    7.4994 C.ar      1 UNK         0.0000 
      5 C5          5.1525   23.1063    7.5433 C.ar      1 UNK         0.0000 
      6 C6          4.3610   21.9613    7.4163 C.ar      1 UNK         0.0000 
      7 C7          4.9592   20.7267    7.1953 C.ar      1 UNK         0.0000 
      8 C8          4.4939   24.4357    7.6416 C.2       1 UNK         0.0000 
      9 O9          3.3501   24.4513    8.3792 O.3       1 UNK         0.0000 
     10 C10         2.8850   25.7227    8.3481 C.ar      1 UNK         0.0000 
     11 C11         1.7261   26.1643    8.9887 C.ar      1 UNK         0.0000 
     12 C12         1.3805   27.4979    8.7903 C.ar      1 UNK         0.0000 
     13 C13         2.1583   28.3449    8.0002 C.ar      1 UNK         0.0000 
     14 C14         3.3555   27.9154    7.3981 C.ar      1 UNK         0.0000 
     15 C15         3.7208   26.5582    7.5682 C.ar      1 UNK         0.0000 
     16 C16         4.8009   25.7057    7.1314 C.2       1 UNK         0.0000 
     17 C17         5.9756   26.0332    6.3719 C.2       1 UNK         0.0000 
     18 O18         6.8069   26.8082    6.8336 O.2       1 UNK         0.0000 
     19 N19         6.1208   25.4624    5.1618 N.am      1 UNK         0.0000 
     20 C20         7.1027   25.7384    4.0854 C.3       1 UNK         0.0000 
     21 C21         6.4207   24.6036    3.3111 C.3       1 UNK         0.0000 
     22 F22         7.2372   23.6701    2.8280 F         1 UNK         0.0000 
     23 C23         5.6517   24.1866    4.5640 C.3       1 UNK         0.0000 
     24 C24         4.1927   28.8871    6.5734 C.3       1 UNK         0.0000 
     25 N25         5.4360   29.3563    7.3448 N.4       1 UNK         0.0000 
     26 C26         6.5346   29.9116    6.4421 C.3       1 UNK         0.0000 
     27 C27         7.5131   30.5365    7.4229 C.3       1 UNK         0.0000 
     28 C28         6.6693   30.9880    8.6307 C.3       1 UNK         0.0000 
     29 C29         6.9051   32.4506    9.0575 C.3       1 UNK         0.0000 
     30 O30         7.9200   31.9807   10.0411 O.3       1 UNK         0.0000 
     31 C31         7.2662   30.6430   10.0020 C.3       1 UNK         0.0000 
     32 C32         5.2343   30.4729    8.3883 C.3       1 UNK         0.0000 
     33 O33         1.7380   29.5180    7.8084 O.co2     1 UNK         0.0000 
     34 H34         6.2812   18.7366    6.8437 H         1 UNK         0.0000 
     35 H35         8.2165   21.6972    7.1731 H         1 UNK         0.0000 
     36 H36         7.1703   23.8809    7.6114 H         1 UNK         0.0000 
     37 H37         3.2829   22.0298    7.4524 H         1 UNK         0.0000 
     38 H38         4.3444   19.8457    7.0826 H         1 UNK         0.0000 
     39 H39         1.1196   25.4999    9.5869 H         1 UNK         0.0000 
     40 H40         0.4824   27.8932    9.2440 H         1 UNK         0.0000 
     41 H41         6.9671   26.7240    3.6419 H         1 UNK         0.0000 
     42 H42         8.1335   25.5744    4.3999 H         1 UNK         0.0000 
     43 H43         5.7828   24.9426    2.4926 H         1 UNK         0.0000 
     44 H44         6.0177   23.2941    5.0647 H         1 UNK         0.0000 
     45 H45         4.5756   24.1455    4.4532 H         1 UNK         0.0000 
     46 H46         4.5639   28.3964    5.6723 H         1 UNK         0.0000 
     47 H47         3.6739   29.7942    6.2552 H         1 UNK         0.0000 
     48 H48         6.9337   29.0884    5.8520 H         1 UNK         0.0000 
     49 H49         6.0302   30.6276    5.7906 H         1 UNK         0.0000 
     50 H50         8.2556   29.7902    7.7108 H         1 UNK         0.0000 
     51 H51         8.0498   31.3593    6.9486 H         1 UNK         0.0000 
     52 H52         7.3439   33.1212    8.3190 H         1 UNK         0.0000 
     53 H53         6.1340   32.9420    9.6436 H         1 UNK         0.0000 
     54 H54         6.5406   30.6052   10.8237 H         1 UNK         0.0000 
     55 H55         8.0065   29.8427   10.0409 H         1 UNK         0.0000 
     56 H56         4.5747   31.2101    7.9272 H         1 UNK         0.0000 
     57 H57         4.7135   30.0427    9.2477 H         1 UNK         0.0000 
     58 H58         5.8083   28.5302    7.8024 H         1 UNK         0.0000 
@<TRIPOS>BOND
     1    1    2 1    
     2    1   34 1    
     3    2    7 ar   
     4    2    3 ar   
     5    3    4 ar   
     6    3   35 1    
     7    4    5 ar   
     8    4   36 1    
     9    5    6 ar   
    10    5    8 1    
    11    6    7 ar   
    12    6   37 1    
    13    7   38 1    
    14    8   16 2    
    15    8    9 1    
    16    9   10 1    
    17   10   15 ar   
    18   10   11 ar   
    19   11   12 ar   
    20   11   39 1    
    21   12   13 ar   
    22   12   40 1    
    23   13   14 ar   
    24   13   33 1    
    25   14   15 ar   
    26   14   24 1    
    27   15   16 1    
    28   16   17 1    
    29   17   18 2    
    30   17   19 am   BACKBONE|DICT|INTERRES
    31   19   23 1    
    32   19   20 1    
    33   20   21 1    
    34   20   41 1    
    35   20   42 1    
    36   21   22 1    
    37   21   23 1    
    38   21   43 1    
    39   23   44 1    
    40   23   45 1    
    41   24   25 1    
    42   24   46 1    
    43   24   47 1    
    44   25   32 1    
    45   25   26 1    
    46   25   58 1    
    47   26   27 1    
    48   26   48 1    
    49   26   49 1    
    50   27   28 1    
    51   27   50 1    
    52   27   51 1    
    53   28   31 1    
    54   28   29 1    
    55   28   32 1    
    56   29   30 1    
    57   29   52 1    
    58   29   53 1    
    59   30   31 1    
    60   31   54 1    
    61   31   55 1    
    62   32   56 1    
    63   32   57 1    
@<TRIPOS>SUBSTRUCTURE
     1 UNK         1 GROUP             0       ****    0 ROOT    
