@<TRIPOS>MOLECULE
/home/yujie/leadopt/data/result/selection/PSK13/lig_40.sdf:1
54   58    1
SMALL
USER_CHARGES


@<TRIPOS>ATOM
      1 O1          6.5540   19.4424    6.8546 O.3       1 UNK         0.0000 
      2 C2          6.0187   20.6676    7.1122 C.ar      1 UNK         0.0000 
      3 C3          6.8592   21.7688    7.2415 C.ar      1 UNK         0.0000 
      4 C4          6.3171   23.0161    7.5404 C.ar      1 UNK         0.0000 
      5 C5          4.9280   23.1672    7.5871 C.ar      1 UNK         0.0000 
      6 C6          4.0927   22.0517    7.4762 C.ar      1 UNK         0.0000 
      7 C7          4.6406   20.7950    7.2495 C.ar      1 UNK         0.0000 
      8 C8          4.3103   24.5176    7.6429 C.2       1 UNK         0.0000 
      9 O9          3.2080   24.5867    8.4401 O.3       1 UNK         0.0000 
     10 C10         2.7687   25.8641    8.3889 C.ar      1 UNK         0.0000 
     11 C11         1.6517   26.3431    9.0728 C.ar      1 UNK         0.0000 
     12 C12         1.3574   27.6931    8.9168 C.ar      1 UNK         0.0000 
     13 C13         2.1390   28.5233    8.1158 C.ar      1 UNK         0.0000 
     14 C14         3.2702   28.0380    7.4282 C.ar      1 UNK         0.0000 
     15 C15         3.5952   26.6617    7.5610 C.ar      1 UNK         0.0000 
     16 C16         4.6042   25.7531    7.0369 C.2       1 UNK         0.0000 
     17 C17         5.7388   26.0350    6.1755 C.2       1 UNK         0.0000 
     18 O18         6.4828   26.9772    6.4410 O.2       1 UNK         0.0000 
     19 N19         5.9402   25.2844    5.0655 N.am      1 UNK         0.0000 
     20 C20         5.5471   23.9231    4.6000 C.3       1 UNK         0.0000 
     21 C21         6.5976   24.0769    3.5106 C.3       1 UNK         0.0000 
     22 F22         6.1342   23.8423    2.2842 F         1 UNK         0.0000 
     23 C23         6.8430   25.5384    3.9128 C.3       1 UNK         0.0000 
     24 C24         4.1340   29.0116    6.6435 C.3       1 UNK         0.0000 
     25 N25         5.1846   29.4692    7.5395 N.3       1 UNK         0.0000 
     26 C26         5.1785   30.9112    7.7461 C.3       1 UNK         0.0000 
     27 C27         6.0067   31.2628    8.9975 C.3       1 UNK         0.0000 
     28 O28         5.3341   31.0426   10.2198 O.3       1 UNK         0.0000 
     29 C29         7.5027   31.0498    8.9504 C.3       1 UNK         0.0000 
     30 C30         6.9344   32.4513    8.9047 C.3       1 UNK         0.0000 
     31 O31         1.7750   29.8434    8.0418 O.3       1 UNK         0.0000 
     32 H32         5.8697   18.7686    6.7753 H         1 UNK         0.0000 
     33 H33         7.9283   21.6495    7.1434 H         1 UNK         0.0000 
     34 H34         6.9696   23.8721    7.6360 H         1 UNK         0.0000 
     35 H35         3.0183   22.1617    7.5222 H         1 UNK         0.0000 
     36 H36         3.9945   19.9344    7.1490 H         1 UNK         0.0000 
     37 H37         1.0504   25.6929    9.6906 H         1 UNK         0.0000 
     38 H38         0.5085   28.1135    9.4368 H         1 UNK         0.0000 
     39 H39         5.8121   23.0909    5.2344 H         1 UNK         0.0000 
     40 H40         4.5341   23.8424    4.2503 H         1 UNK         0.0000 
     41 H41         7.4701   23.4364    3.6490 H         1 UNK         0.0000 
     42 H42         6.4591   26.3019    3.2415 H         1 UNK         0.0000 
     43 H43         7.8757   25.7175    4.2120 H         1 UNK         0.0000 
     44 H44         4.5607   28.5289    5.7650 H         1 UNK         0.0000 
     45 H45         3.5291   29.8354    6.2583 H         1 UNK         0.0000 
     46 H46         6.0911   29.1161    7.2578 H         1 UNK         0.0000 
     47 H47         5.5744   31.4047    6.8569 H         1 UNK         0.0000 
     48 H48         4.1563   31.2639    7.8855 H         1 UNK         0.0000 
     49 H49         4.3802   31.0287   10.0684 H         1 UNK         0.0000 
     50 H50         8.0554   30.8057    9.8577 H         1 UNK         0.0000 
     51 H51         7.9939   30.7129    8.0375 H         1 UNK         0.0000 
     52 H52         7.0730   32.9867    7.9647 H         1 UNK         0.0000 
     53 H53         7.1505   33.0626    9.7817 H         1 UNK         0.0000 
     54 H54         1.3583   30.1459    8.8695 H         1 UNK         0.0000 
@<TRIPOS>BOND
     1    1    2 1    
     2    1   32 1    
     3    2    7 ar   
     4    2    3 ar   
     5    3    4 ar   
     6    3   33 1    
     7    4    5 ar   
     8    4   34 1    
     9    5    6 ar   
    10    5    8 1    
    11    6    7 ar   
    12    6   35 1    
    13    7   36 1    
    14    8   16 2    
    15    8    9 1    
    16    9   10 1    
    17   10   15 ar   
    18   10   11 ar   
    19   11   12 ar   
    20   11   37 1    
    21   12   13 ar   
    22   12   38 1    
    23   13   14 ar   
    24   13   31 1    
    25   14   15 ar   
    26   14   24 1    
    27   15   16 1    
    28   16   17 1    
    29   17   18 2    
    30   17   19 am   BACKBONE|DICT|INTERRES
    31   19   23 1    
    32   19   20 1    
    33   20   21 1    
    34   20   39 1    
    35   20   40 1    
    36   21   22 1    
    37   21   23 1    
    38   21   41 1    
    39   23   42 1    
    40   23   43 1    
    41   24   25 1    
    42   24   44 1    
    43   24   45 1    
    44   25   26 1    
    45   25   46 1    
    46   26   27 1    
    47   26   47 1    
    48   26   48 1    
    49   27   30 1    
    50   27   28 1    
    51   27   29 1    
    52   28   49 1    
    53   29   30 1    
    54   29   50 1    
    55   29   51 1    
    56   30   52 1    
    57   30   53 1    
    58   31   54 1    
@<TRIPOS>SUBSTRUCTURE
     1 UNK         1 GROUP             0       ****    0 ROOT    
