@<TRIPOS>MOLECULE
/home/yujie/leadopt/data/result/selection/PSK13/lig_35.sdf:1
55   59    1
SMALL
USER_CHARGES


@<TRIPOS>ATOM
      1 C1          6.7796   25.7489    4.1197 C.3       1 UNK         0.0000 
      2 N2          5.7351   25.5775    5.1192 N.am      1 UNK         0.0000 
      3 C3          5.6196   26.3334    6.2199 C.2       1 UNK         0.0000 
      4 O4          6.3480   27.2842    6.4921 O.2       1 UNK         0.0000 
      5 C5          4.5391   25.9417    7.0803 C.2       1 UNK         0.0000 
      6 C6          4.3142   24.6330    7.5692 C.2       1 UNK         0.0000 
      7 O7          3.1971   24.5960    8.3507 O.3       1 UNK         0.0000 
      8 C8          2.6740   25.8432    8.3664 C.ar      1 UNK         0.0000 
      9 C9          1.4823   26.1918    8.9948 C.ar      1 UNK         0.0000 
     10 C10         1.0551   27.5081    8.8311 C.ar      1 UNK         0.0000 
     11 C11         1.8214   28.4460    8.1416 C.ar      1 UNK         0.0000 
     12 C12         3.0695   28.1115    7.5811 C.ar      1 UNK         0.0000 
     13 C13         3.4733   26.7503    7.6387 C.ar      1 UNK         0.0000 
     14 C14         3.9470   29.2194    7.0013 C.3       1 UNK         0.0000 
     15 N15         5.0205   29.6222    8.0342 N.4       1 UNK         0.0000 
     16 C16         4.4350   30.2580    9.3076 C.3       1 UNK         0.0000 
     17 C17         5.6252   30.8930   10.0159 C.3       1 UNK         0.0000 
     18 C18         6.6998   31.0976    8.9309 C.3       1 UNK         0.0000 
     19 C19         8.0778   30.4948    9.2662 C.3       1 UNK         0.0000 
     20 O20         8.5903   31.8422    9.6366 O.3       1 UNK         0.0000 
     21 C21         7.4063   32.4632    8.9697 C.3       1 UNK         0.0000 
     22 C22         6.0782   30.6449    7.5943 C.3       1 UNK         0.0000 
     23 O23         1.3296   29.7186    8.0417 O.3       1 UNK         0.0000 
     24 C24         4.9777   23.2865    7.4148 C.ar      1 UNK         0.0000 
     25 C25         4.1590   22.1431    7.4629 C.ar      1 UNK         0.0000 
     26 C26         4.7049   20.8613    7.3778 C.ar      1 UNK         0.0000 
     27 C27         6.0799   20.6989    7.2410 C.ar      1 UNK         0.0000 
     28 C28         6.9028   21.8191    7.1635 C.ar      1 UNK         0.0000 
     29 C29         6.3626   23.1022    7.2608 C.ar      1 UNK         0.0000 
     30 F30         7.2180   24.1462    7.2422 F         1 UNK         0.0000 
     31 O31         6.6280   19.4430    7.2293 O.3       1 UNK         0.0000 
     32 H32         6.6950   24.9837    3.3468 H         1 UNK         0.0000 
     33 H33         6.6970   26.7243    3.6423 H         1 UNK         0.0000 
     34 H34         7.7679   25.6707    4.5767 H         1 UNK         0.0000 
     35 H35         5.0425   24.8661    4.9495 H         1 UNK         0.0000 
     36 H36         0.9097   25.4476    9.5309 H         1 UNK         0.0000 
     37 H37         0.1065   27.8182    9.2410 H         1 UNK         0.0000 
     38 H38         4.4734   28.9171    6.0976 H         1 UNK         0.0000 
     39 H39         3.4024   30.1351    6.7652 H         1 UNK         0.0000 
     40 H40         3.7327   31.0121    8.9471 H         1 UNK         0.0000 
     41 H41         3.8799   29.5159    9.8808 H         1 UNK         0.0000 
     42 H42         5.3094   31.8360   10.4687 H         1 UNK         0.0000 
     43 H43         5.9629   30.2436   10.8237 H         1 UNK         0.0000 
     44 H44         8.1330   29.8276   10.1244 H         1 UNK         0.0000 
     45 H45         8.6688   30.1249    8.4270 H         1 UNK         0.0000 
     46 H46         7.7330   32.8655    8.0084 H         1 UNK         0.0000 
     47 H47         6.9720   33.2245    9.6188 H         1 UNK         0.0000 
     48 H48         6.7501   30.1491    6.8902 H         1 UNK         0.0000 
     49 H49         5.5414   31.4400    7.0695 H         1 UNK         0.0000 
     50 H50         0.9545   30.0188    8.8989 H         1 UNK         0.0000 
     51 H51         3.0900   22.2390    7.5783 H         1 UNK         0.0000 
     52 H52         4.0672   19.9909    7.4370 H         1 UNK         0.0000 
     53 H53         7.9726   21.7054    7.0641 H         1 UNK         0.0000 
     54 H54         7.5868   19.4540    7.2522 H         1 UNK         0.0000 
     55 H55         5.5067   28.7658    8.2827 H         1 UNK         0.0000 
@<TRIPOS>BOND
     1    1    2 1    
     2    1   32 1    
     3    1   33 1    
     4    1   34 1    
     5    2    3 am   BACKBONE|DICT|INTERRES
     6    2   35 1    
     7    3    4 2    
     8    3    5 1    
     9    5   13 1    
    10    5    6 2    
    11    6    7 1    
    12    6   24 1    
    13    7    8 1    
    14    8   13 ar   
    15    8    9 ar   
    16    9   10 ar   
    17    9   36 1    
    18   10   11 ar   
    19   10   37 1    
    20   11   12 ar   
    21   11   23 1    
    22   12   13 ar   
    23   12   14 1    
    24   14   15 1    
    25   14   38 1    
    26   14   39 1    
    27   15   22 1    
    28   15   16 1    
    29   15   55 1    
    30   16   17 1    
    31   16   40 1    
    32   16   41 1    
    33   17   18 1    
    34   17   42 1    
    35   17   43 1    
    36   18   21 1    
    37   18   19 1    
    38   18   22 1    
    39   19   20 1    
    40   19   44 1    
    41   19   45 1    
    42   20   21 1    
    43   21   46 1    
    44   21   47 1    
    45   22   48 1    
    46   22   49 1    
    47   23   50 1    
    48   24   29 ar   
    49   24   25 ar   
    50   25   26 ar   
    51   25   51 1    
    52   26   27 ar   
    53   26   52 1    
    54   27   28 ar   
    55   27   31 1    
    56   28   29 ar   
    57   28   53 1    
    58   29   30 1    
    59   31   54 1    
@<TRIPOS>SUBSTRUCTURE
     1 UNK         1 GROUP             0       ****    0 ROOT    
