@<TRIPOS>MOLECULE
/home/yujie/leadopt/data/result/selection/PSK13/lig_15.sdf:1
53   56    1
SMALL
USER_CHARGES


@<TRIPOS>ATOM
      1 C1          6.7579   25.6347    3.9922 C.3       1 UNK         0.0000 
      2 N2          5.7341   25.4957    5.0169 N.am      1 UNK         0.0000 
      3 C3          5.6953   26.2147    6.1471 C.2       1 UNK         0.0000 
      4 O4          6.5144   27.0813    6.4389 O.2       1 UNK         0.0000 
      5 C5          4.6021   25.8758    7.0169 C.2       1 UNK         0.0000 
      6 C6          4.3202   24.5747    7.4812 C.2       1 UNK         0.0000 
      7 O7          3.2354   24.5659    8.3045 O.3       1 UNK         0.0000 
      8 C8          2.8002   25.8443    8.3981 C.ar      1 UNK         0.0000 
      9 C9          1.6908   26.2460    9.1421 C.ar      1 UNK         0.0000 
     10 C10         1.3714   27.5981    9.0974 C.ar      1 UNK         0.0000 
     11 C11         2.1323   28.5026    8.3607 C.ar      1 UNK         0.0000 
     12 C12         3.2745   28.1069    7.6404 C.ar      1 UNK         0.0000 
     13 C13         3.6085   26.7273    7.6401 C.ar      1 UNK         0.0000 
     14 C14         4.0930   29.1701    6.9050 C.3       1 UNK         0.0000 
     15 N15         5.2239   29.6609    7.7038 N.3       1 UNK         0.0000 
     16 C16         4.8034   30.4501    8.8759 C.3       1 UNK         0.0000 
     17 C17         5.9996   30.9571    9.7015 C.3       1 UNK         0.0000 
     18 C18         7.0020   31.7348    8.8360 C.3       1 UNK         0.0000 
     19 C19         7.4156   30.9171    7.6007 C.3       1 UNK         0.0000 
     20 O20         8.2697   29.8423    7.9462 O.3       1 UNK         0.0000 
     21 C21         6.1802   30.3763    6.8411 C.3       1 UNK         0.0000 
     22 O22         1.7341   29.8112    8.3609 O.3       1 UNK         0.0000 
     23 C23         4.9326   23.2244    7.2686 C.ar      1 UNK         0.0000 
     24 C24         6.3096   23.0694    7.0716 C.ar      1 UNK         0.0000 
     25 C25         6.8464   21.8046    6.8427 C.ar      1 UNK         0.0000 
     26 C26         6.0109   20.6912    6.8381 C.ar      1 UNK         0.0000 
     27 C27         4.6431   20.8283    7.0560 C.ar      1 UNK         0.0000 
     28 C28         4.1059   22.0946    7.2684 C.ar      1 UNK         0.0000 
     29 O29         6.5343   19.4488    6.6160 O.3       1 UNK         0.0000 
     30 H30         7.9784   31.5588    6.9227 H         1 UNK         0.0000 
     31 H31         6.5110   25.0139    3.1315 H         1 UNK         0.0000 
     32 H32         6.8357   26.6672    3.6528 H         1 UNK         0.0000 
     33 H33         7.7301   25.3221    4.3738 H         1 UNK         0.0000 
     34 H34         4.9948   24.8301    4.8474 H         1 UNK         0.0000 
     35 H35         1.1033   25.5351    9.7037 H         1 UNK         0.0000 
     36 H36         0.5137   27.9611    9.6425 H         1 UNK         0.0000 
     37 H37         4.4497   28.7316    5.9727 H         1 UNK         0.0000 
     38 H38         3.4620   30.0086    6.6038 H         1 UNK         0.0000 
     39 H39         4.1849   31.2888    8.5530 H         1 UNK         0.0000 
     40 H40         4.1719   29.8407    9.5230 H         1 UNK         0.0000 
     41 H41         5.6253   31.6063   10.4935 H         1 UNK         0.0000 
     42 H42         6.4739   30.1211   10.2162 H         1 UNK         0.0000 
     43 H43         6.5497   32.6715    8.5102 H         1 UNK         0.0000 
     44 H44         7.8779   32.0087    9.4251 H         1 UNK         0.0000 
     45 H45         7.7283   29.1819    8.3976 H         1 UNK         0.0000 
     46 H46         6.5104   29.7108    6.0423 H         1 UNK         0.0000 
     47 H47         5.6577   31.2004    6.3509 H         1 UNK         0.0000 
     48 H48         1.2223   30.0796    9.1505 H         1 UNK         0.0000 
     49 H49         6.9692   23.9251    7.0841 H         1 UNK         0.0000 
     50 H50         7.9072   21.6860    6.6788 H         1 UNK         0.0000 
     51 H51         3.9951   19.9632    7.0528 H         1 UNK         0.0000 
     52 H52         3.0408   22.1937    7.4235 H         1 UNK         0.0000 
     53 H53         5.8375   18.7843    6.5695 H         1 UNK         0.0000 
@<TRIPOS>BOND
     1    1    2 1    
     2    1   31 1    
     3    1   32 1    
     4    1   33 1    
     5    2    3 am   BACKBONE|DICT|INTERRES
     6    2   34 1    
     7    3    4 2    
     8    3    5 1    
     9    5   13 1    
    10    5    6 2    
    11    6    7 1    
    12    6   23 1    
    13    7    8 1    
    14    8   13 ar   
    15    8    9 ar   
    16    9   10 ar   
    17    9   35 1    
    18   10   11 ar   
    19   10   36 1    
    20   11   12 ar   
    21   11   22 1    
    22   12   13 ar   
    23   12   14 1    
    24   14   15 1    
    25   14   37 1    
    26   14   38 1    
    27   15   21 1    
    28   15   16 1    
    29   16   17 1    
    30   16   39 1    
    31   16   40 1    
    32   17   18 1    
    33   17   41 1    
    34   17   42 1    
    35   18   19 1    
    36   18   43 1    
    37   18   44 1    
    38   19   30 1    
    39   19   20 1    
    40   19   21 1    
    41   20   45 1    
    42   21   46 1    
    43   21   47 1    
    44   22   48 1    
    45   23   28 ar   
    46   23   24 ar   
    47   24   25 ar   
    48   24   49 1    
    49   25   26 ar   
    50   25   50 1    
    51   26   27 ar   
    52   26   29 1    
    53   27   28 ar   
    54   27   51 1    
    55   28   52 1    
    56   29   53 1    
@<TRIPOS>SUBSTRUCTURE
     1 UNK         1 GROUP             0       ****    0 ROOT    
