@<TRIPOS>MOLECULE
/home/yujie/leadopt/data/result/selection/PSK13/lig_41.sdf:1
49   52    1
SMALL
USER_CHARGES


@<TRIPOS>ATOM
      1 C1          6.7592   25.6406    4.0598 C.3       1 UNK         0.0000 
      2 N2          5.7350   25.4603    5.0773 N.am      1 UNK         0.0000 
      3 C3          5.6532   26.2038    6.1880 C.2       1 UNK         0.0000 
      4 O4          6.4107   27.1364    6.4561 O.2       1 UNK         0.0000 
      5 C5          4.5478   25.8613    7.0344 C.2       1 UNK         0.0000 
      6 C6          4.2427   24.5601    7.4999 C.2       1 UNK         0.0000 
      7 O7          3.1320   24.5741    8.2884 O.3       1 UNK         0.0000 
      8 C8          2.7221   25.8580    8.3785 C.ar      1 UNK         0.0000 
      9 C9          1.6115   26.2723    9.1070 C.ar      1 UNK         0.0000 
     10 C10         1.3365   27.6314    9.0881 C.ar      1 UNK         0.0000 
     11 C11         2.1186   28.5288    8.3702 C.ar      1 UNK         0.0000 
     12 C12         3.2531   28.1163    7.6439 C.ar      1 UNK         0.0000 
     13 C13         3.5572   26.7276    7.6406 C.ar      1 UNK         0.0000 
     14 C14         4.0994   29.1751    6.9371 C.3       1 UNK         0.0000 
     15 N15         5.2784   29.6909    7.8004 N.4       1 UNK         0.0000 
     16 C16         6.1733   30.7125    7.0718 C.3       1 UNK         0.0000 
     17 C17         6.8332   31.5442    8.1799 C.3       1 UNK         0.0000 
     18 C18         6.0622   31.2634    9.4764 C.3       1 UNK         0.0000 
     19 C19         4.8479   30.4252    9.0878 C.3       1 UNK         0.0000 
     20 O20         1.7429   29.8419    8.3952 O.3       1 UNK         0.0000 
     21 C21         4.8265   23.1836    7.3400 C.ar      1 UNK         0.0000 
     22 C22         4.0337   22.0440    7.5300 C.ar      1 UNK         0.0000 
     23 C23         4.6065   20.7798    7.3680 C.ar      1 UNK         0.0000 
     24 C24         5.9504   20.6806    7.0096 C.ar      1 UNK         0.0000 
     25 C25         6.6836   21.8554    6.8418 C.ar      1 UNK         0.0000 
     26 N26         6.1433   23.0948    7.0102 N.ar      1 UNK         0.0000 
     27 O27         6.5347   19.4556    6.8346 O.3       1 UNK         0.0000 
     28 H28         6.6238   24.9207    3.2510 H         1 UNK         0.0000 
     29 H29         6.7073   26.6441    3.6393 H         1 UNK         0.0000 
     30 H30         7.7544   25.4955    4.4840 H         1 UNK         0.0000 
     31 H31         5.0781   24.7060    4.9578 H         1 UNK         0.0000 
     32 H32         0.9959   25.5686    9.6411 H         1 UNK         0.0000 
     33 H33         0.4929   28.0077    9.6395 H         1 UNK         0.0000 
     34 H34         4.5341   28.8057    6.0097 H         1 UNK         0.0000 
     35 H35         3.5213   30.0646    6.6729 H         1 UNK         0.0000 
     36 H36         6.8651   30.1563    6.4406 H         1 UNK         0.0000 
     37 H37         5.5180   31.3265    6.4497 H         1 UNK         0.0000 
     38 H38         7.8866   31.2805    8.2903 H         1 UNK         0.0000 
     39 H39         6.7944   32.6069    7.9276 H         1 UNK         0.0000 
     40 H40         5.7556   32.1950    9.9651 H         1 UNK         0.0000 
     41 H41         6.6813   30.7142   10.1874 H         1 UNK         0.0000 
     42 H42         3.9912   31.0437    8.8205 H         1 UNK         0.0000 
     43 H43         4.5226   29.6963    9.8312 H         1 UNK         0.0000 
     44 H44         1.2069   30.1041    9.1754 H         1 UNK         0.0000 
     45 H45         2.9895   22.1270    7.7937 H         1 UNK         0.0000 
     46 H46         4.0076   19.8928    7.5162 H         1 UNK         0.0000 
     47 H47         7.7273   21.8171    6.5709 H         1 UNK         0.0000 
     48 H48         5.8837   18.7473    6.8408 H         1 UNK         0.0000 
     49 H49         5.8449   28.8884    8.0609 H         1 UNK         0.0000 
@<TRIPOS>BOND
     1    1    2 1    
     2    1   28 1    
     3    1   29 1    
     4    1   30 1    
     5    2    3 am   BACKBONE|DICT|INTERRES
     6    2   31 1    
     7    3    4 2    
     8    3    5 1    
     9    5   13 1    
    10    5    6 2    
    11    6    7 1    
    12    6   21 1    
    13    7    8 1    
    14    8   13 ar   
    15    8    9 ar   
    16    9   10 ar   
    17    9   32 1    
    18   10   11 ar   
    19   10   33 1    
    20   11   12 ar   
    21   11   20 1    
    22   12   13 ar   
    23   12   14 1    
    24   14   15 1    
    25   14   34 1    
    26   14   35 1    
    27   15   19 1    
    28   15   16 1    
    29   15   49 1    
    30   16   17 1    
    31   16   36 1    
    32   16   37 1    
    33   17   18 1    
    34   17   38 1    
    35   17   39 1    
    36   18   19 1    
    37   18   40 1    
    38   18   41 1    
    39   19   42 1    
    40   19   43 1    
    41   20   44 1    
    42   21   26 ar   
    43   21   22 ar   
    44   22   23 ar   
    45   22   45 1    
    46   23   24 ar   
    47   23   46 1    
    48   24   25 ar   
    49   24   27 1    
    50   25   26 ar   
    51   25   47 1    
    52   27   48 1    
@<TRIPOS>SUBSTRUCTURE
     1 UNK         1 GROUP             0       ****    0 ROOT    
