@<TRIPOS>MOLECULE
/home/yujie/leadopt/data/result/selection/PSK13/lig_39.sdf:1
55   59    1
SMALL
USER_CHARGES


@<TRIPOS>ATOM
      1 O1          6.5319   19.4426    6.9473 O.3       1 UNK         0.0000 
      2 C2          5.9839   20.6828    7.1107 C.ar      1 UNK         0.0000 
      3 C3          6.8187   21.7880    7.2412 C.ar      1 UNK         0.0000 
      4 C4          6.2690   23.0502    7.4431 C.ar      1 UNK         0.0000 
      5 C5          4.8810   23.2161    7.4414 C.ar      1 UNK         0.0000 
      6 C6          4.0498   22.0970    7.3152 C.ar      1 UNK         0.0000 
      7 C7          4.6005   20.8285    7.1571 C.ar      1 UNK         0.0000 
      8 C8          4.2667   24.5750    7.5359 C.2       1 UNK         0.0000 
      9 O9          3.1115   24.6075    8.2595 O.3       1 UNK         0.0000 
     10 C10         2.6869   25.8939    8.2708 C.ar      1 UNK         0.0000 
     11 C11         1.5374   26.3507    8.9178 C.ar      1 UNK         0.0000 
     12 C12         1.2560   27.7095    8.8062 C.ar      1 UNK         0.0000 
     13 C13         2.0822   28.5698    8.0855 C.ar      1 UNK         0.0000 
     14 C14         3.2517   28.1128    7.4485 C.ar      1 UNK         0.0000 
     15 C15         3.5606   26.7292    7.5368 C.ar      1 UNK         0.0000 
     16 C16         4.6113   25.8543    7.0563 C.2       1 UNK         0.0000 
     17 C17         5.8026   26.1998    6.3197 C.2       1 UNK         0.0000 
     18 O18         6.5505   27.0737    6.7545 O.2       1 UNK         0.0000 
     19 N19         6.0233   25.6036    5.1295 N.am      1 UNK         0.0000 
     20 C20         6.9765   25.9666    4.0563 C.3       1 UNK         0.0000 
     21 C21         6.3272   24.8340    3.2422 C.3       1 UNK         0.0000 
     22 C22         5.6336   24.3119    4.5120 C.3       1 UNK         0.0000 
     23 C23         4.1618   29.1207    6.7619 C.3       1 UNK         0.0000 
     24 N24         5.3148   29.4418    7.7130 N.4       1 UNK         0.0000 
     25 C25         6.1785   30.6632    7.3833 C.3       1 UNK         0.0000 
     26 C26         7.1351   30.8622    8.5680 C.3       1 UNK         0.0000 
     27 O27         8.1644   29.9002    8.6585 O.3       1 UNK         0.0000 
     28 C28         7.4185   32.2625    9.0430 C.3       1 UNK         0.0000 
     29 C29         6.5125   31.3605    9.8519 C.3       1 UNK         0.0000 
     30 O30         1.7345   29.8941    8.0417 O.3       1 UNK         0.0000 
     31 H31         5.8566   18.7633    6.8418 H         1 UNK         0.0000 
     32 H32         7.8911   21.6616    7.2132 H         1 UNK         0.0000 
     33 H33         6.9259   23.9008    7.5527 H         1 UNK         0.0000 
     34 H34         2.9747   22.2076    7.3194 H         1 UNK         0.0000 
     35 H35         3.9535   19.9685    7.0559 H         1 UNK         0.0000 
     36 H36         0.8984   25.6786    9.4726 H         1 UNK         0.0000 
     37 H37         0.3763   28.1119    9.2880 H         1 UNK         0.0000 
     38 H38         6.7337   26.9738    3.7185 H         1 UNK         0.0000 
     39 H39         7.9978   25.8424    4.4186 H         1 UNK         0.0000 
     40 H40         7.0789   24.1303    2.8826 H         1 UNK         0.0000 
     41 H41         5.6226   25.2116    2.5000 H         1 UNK         0.0000 
     42 H42         6.1008   23.4791    5.0299 H         1 UNK         0.0000 
     43 H43         4.5497   24.2488    4.4846 H         1 UNK         0.0000 
     44 H44         4.6077   28.7539    5.8362 H         1 UNK         0.0000 
     45 H45         3.6783   30.0759    6.5492 H         1 UNK         0.0000 
     46 H46         4.9121   29.5819    8.6299 H         1 UNK         0.0000 
     47 H47         6.6905   30.4388    6.4468 H         1 UNK         0.0000 
     48 H48         5.4839   31.4949    7.2488 H         1 UNK         0.0000 
     49 H49         7.8079   29.0995    9.0718 H         1 UNK         0.0000 
     50 H50         8.3491   32.5146    9.5490 H         1 UNK         0.0000 
     51 H51         6.9346   33.1209    8.5778 H         1 UNK         0.0000 
     52 H52         5.4698   31.6820    9.9017 H         1 UNK         0.0000 
     53 H53         6.9046   31.0429   10.8171 H         1 UNK         0.0000 
     54 H54         1.3137   30.1872    8.8740 H         1 UNK         0.0000 
     55 H55         5.9099   28.6188    7.7608 H         1 UNK         0.0000 
@<TRIPOS>BOND
     1    1    2 1    
     2    1   31 1    
     3    2    7 ar   
     4    2    3 ar   
     5    3    4 ar   
     6    3   32 1    
     7    4    5 ar   
     8    4   33 1    
     9    5    6 ar   
    10    5    8 1    
    11    6    7 ar   
    12    6   34 1    
    13    7   35 1    
    14    8   16 2    
    15    8    9 1    
    16    9   10 1    
    17   10   15 ar   
    18   10   11 ar   
    19   11   12 ar   
    20   11   36 1    
    21   12   13 ar   
    22   12   37 1    
    23   13   14 ar   
    24   13   30 1    
    25   14   15 ar   
    26   14   23 1    
    27   15   16 1    
    28   16   17 1    
    29   17   18 2    
    30   17   19 am   BACKBONE|DICT|INTERRES
    31   19   22 1    
    32   19   20 1    
    33   20   21 1    
    34   20   38 1    
    35   20   39 1    
    36   21   22 1    
    37   21   40 1    
    38   21   41 1    
    39   22   42 1    
    40   22   43 1    
    41   23   24 1    
    42   23   44 1    
    43   23   45 1    
    44   24   25 1    
    45   24   46 1    
    46   24   55 1    
    47   25   26 1    
    48   25   47 1    
    49   25   48 1    
    50   26   29 1    
    51   26   27 1    
    52   26   28 1    
    53   27   49 1    
    54   28   29 1    
    55   28   50 1    
    56   28   51 1    
    57   29   52 1    
    58   29   53 1    
    59   30   54 1    
@<TRIPOS>SUBSTRUCTURE
     1 UNK         1 GROUP             0       ****    0 ROOT    
