@<TRIPOS>MOLECULE
/home/yujie/leadopt/data/result/selection/PSK13/lig_21.sdf:1
52   55    1
SMALL
USER_CHARGES


@<TRIPOS>ATOM
      1 C1          6.7618   25.4521    4.1348 C.3       1 UNK         0.0000 
      2 N2          5.7340   25.3323    5.1587 N.am      1 UNK         0.0000 
      3 C3          5.6829   26.0853    6.2645 C.2       1 UNK         0.0000 
      4 O4          6.4891   26.9722    6.5395 O.2       1 UNK         0.0000 
      5 C5          4.5610   25.7966    7.1120 C.2       1 UNK         0.0000 
      6 C6          4.2398   24.5343    7.6412 C.2       1 UNK         0.0000 
      7 O7          3.1267   24.5846    8.4271 O.3       1 UNK         0.0000 
      8 C8          2.6995   25.8695    8.4140 C.ar      1 UNK         0.0000 
      9 C9          1.5586   26.3403    9.0620 C.ar      1 UNK         0.0000 
     10 C10         1.2657   27.6888    8.8853 C.ar      1 UNK         0.0000 
     11 C11         2.0839   28.5218    8.1236 C.ar      1 UNK         0.0000 
     12 C12         3.2565   28.0574    7.5035 C.ar      1 UNK         0.0000 
     13 C13         3.5545   26.6848    7.6322 C.ar      1 UNK         0.0000 
     14 C14         4.1299   29.0167    6.6945 C.3       1 UNK         0.0000 
     15 N15         5.3183   29.6087    7.4884 N.4       1 UNK         0.0000 
     16 C16         6.1390   30.5035    6.5291 C.3       1 UNK         0.0000 
     17 C17         7.2923   31.1837    7.2829 C.3       1 UNK         0.0000 
     18 C18         6.7778   32.0002    8.4796 C.3       1 UNK         0.0000 
     19 C19         5.9746   31.1181    9.4479 C.3       1 UNK         0.0000 
     20 F20         5.4831   31.8411   10.4414 F         1 UNK         0.0000 
     21 F21         6.8064   30.2424    9.9949 F         1 UNK         0.0000 
     22 C22         4.8217   30.3708    8.7493 C.3       1 UNK         0.0000 
     23 O23         1.7325   29.7271    7.9890 O.co2     1 UNK         0.0000 
     24 C24         4.8498   23.1807    7.5246 C.ar      1 UNK         0.0000 
     25 C25         4.0313   22.0462    7.5122 C.ar      1 UNK         0.0000 
     26 C26         4.5932   20.7837    7.3572 C.ar      1 UNK         0.0000 
     27 C27         5.9719   20.6679    7.2122 C.ar      1 UNK         0.0000 
     28 C28         6.7962   21.7864    7.2389 C.ar      1 UNK         0.0000 
     29 C29         6.2358   23.0428    7.4096 C.ar      1 UNK         0.0000 
     30 O30         6.5340   19.4426    7.0213 O.3       1 UNK         0.0000 
     31 H31         6.8516   24.5155    3.5845 H         1 UNK         0.0000 
     32 H32         6.4964   26.2414    3.4313 H         1 UNK         0.0000 
     33 H33         7.7384   25.6879    4.5633 H         1 UNK         0.0000 
     34 H34         4.9885   24.6711    5.0006 H         1 UNK         0.0000 
     35 H35         0.9256   25.6851    9.6428 H         1 UNK         0.0000 
     36 H36         0.3871   28.1129    9.3479 H         1 UNK         0.0000 
     37 H37         4.5441   28.5344    5.8093 H         1 UNK         0.0000 
     38 H38         3.5693   29.8795    6.3258 H         1 UNK         0.0000 
     39 H39         6.5288   29.8316    5.7662 H         1 UNK         0.0000 
     40 H40         5.4541   31.2281    6.0795 H         1 UNK         0.0000 
     41 H41         8.0095   30.4332    7.6185 H         1 UNK         0.0000 
     42 H42         7.8305   31.8410    6.6000 H         1 UNK         0.0000 
     43 H43         7.6084   32.4782    9.0016 H         1 UNK         0.0000 
     44 H44         6.1410   32.8027    8.1084 H         1 UNK         0.0000 
     45 H45         4.0284   31.0432    8.4216 H         1 UNK         0.0000 
     46 H46         4.3773   29.6360    9.4230 H         1 UNK         0.0000 
     47 H47         2.9582   22.1398    7.6038 H         1 UNK         0.0000 
     48 H48         3.9621   19.9059    7.3355 H         1 UNK         0.0000 
     49 H49         7.8651   21.6744    7.1310 H         1 UNK         0.0000 
     50 H50         6.8882   23.9026    7.4364 H         1 UNK         0.0000 
     51 H51         5.8651   18.7610    6.8962 H         1 UNK         0.0000 
     52 H52         5.9139   28.8446    7.7963 H         1 UNK         0.0000 
@<TRIPOS>BOND
     1    1    2 1    
     2    1   31 1    
     3    1   32 1    
     4    1   33 1    
     5    2    3 am   BACKBONE|DICT|INTERRES
     6    2   34 1    
     7    3    4 2    
     8    3    5 1    
     9    5   13 1    
    10    5    6 2    
    11    6    7 1    
    12    6   24 1    
    13    7    8 1    
    14    8   13 ar   
    15    8    9 ar   
    16    9   10 ar   
    17    9   35 1    
    18   10   11 ar   
    19   10   36 1    
    20   11   12 ar   
    21   11   23 1    
    22   12   13 ar   
    23   12   14 1    
    24   14   15 1    
    25   14   37 1    
    26   14   38 1    
    27   15   22 1    
    28   15   16 1    
    29   15   52 1    
    30   16   17 1    
    31   16   39 1    
    32   16   40 1    
    33   17   18 1    
    34   17   41 1    
    35   17   42 1    
    36   18   19 1    
    37   18   43 1    
    38   18   44 1    
    39   19   20 1    
    40   19   21 1    
    41   19   22 1    
    42   22   45 1    
    43   22   46 1    
    44   24   29 ar   
    45   24   25 ar   
    46   25   26 ar   
    47   25   47 1    
    48   26   27 ar   
    49   26   48 1    
    50   27   28 ar   
    51   27   30 1    
    52   28   29 ar   
    53   28   49 1    
    54   29   50 1    
    55   30   51 1    
@<TRIPOS>SUBSTRUCTURE
     1 UNK         1 GROUP             0       ****    0 ROOT    
