/home/yujie/leadopt/data/result/selection/PSK13/lig_40.sdf:1
                    3D
 Schrodinger Suite 2020-3.
 54 58  0  0  1  0            999 V2000
    6.5540   19.4424    6.8546 O   0  0  0  0  0  0
    6.0187   20.6676    7.1122 C   0  0  0  0  0  0
    6.8592   21.7688    7.2415 C   0  0  0  0  0  0
    6.3171   23.0161    7.5404 C   0  0  0  0  0  0
    4.9280   23.1672    7.5871 C   0  0  0  0  0  0
    4.0927   22.0517    7.4762 C   0  0  0  0  0  0
    4.6406   20.7950    7.2495 C   0  0  0  0  0  0
    4.3103   24.5176    7.6429 C   0  0  0  0  0  0
    3.2080   24.5867    8.4401 O   0  0  0  0  0  0
    2.7687   25.8641    8.3889 C   0  0  0  0  0  0
    1.6517   26.3431    9.0728 C   0  0  0  0  0  0
    1.3574   27.6931    8.9168 C   0  0  0  0  0  0
    2.1390   28.5233    8.1158 C   0  0  0  0  0  0
    3.2702   28.0380    7.4282 C   0  0  0  0  0  0
    3.5952   26.6617    7.5610 C   0  0  0  0  0  0
    4.6042   25.7531    7.0369 C   0  0  0  0  0  0
    5.7388   26.0350    6.1755 C   0  0  0  0  0  0
    6.4828   26.9772    6.4410 O   0  0  0  0  0  0
    5.9402   25.2844    5.0655 N   0  0  0  0  0  0
    5.5471   23.9231    4.6000 C   0  0  0  0  0  0
    6.5976   24.0769    3.5106 C   0  0  0  0  0  0
    6.1342   23.8423    2.2842 F   0  0  0  0  0  0
    6.8430   25.5384    3.9128 C   0  0  0  0  0  0
    4.1340   29.0116    6.6435 C   0  0  0  0  0  0
    5.1846   29.4692    7.5395 N   0  0  1  0  0  0
    5.1785   30.9112    7.7461 C   0  0  0  0  0  0
    6.0067   31.2628    8.9975 C   0  0  0  0  0  0
    5.3341   31.0426   10.2198 O   0  0  0  0  0  0
    7.5027   31.0498    8.9504 C   0  0  0  0  0  0
    6.9344   32.4513    8.9047 C   0  0  0  0  0  0
    1.7750   29.8434    8.0418 O   0  0  0  0  0  0
    5.8697   18.7686    6.7753 H   0  0  0  0  0  0
    7.9283   21.6495    7.1434 H   0  0  0  0  0  0
    6.9696   23.8721    7.6360 H   0  0  0  0  0  0
    3.0183   22.1617    7.5222 H   0  0  0  0  0  0
    3.9945   19.9344    7.1490 H   0  0  0  0  0  0
    1.0504   25.6929    9.6906 H   0  0  0  0  0  0
    0.5085   28.1135    9.4368 H   0  0  0  0  0  0
    5.8121   23.0909    5.2344 H   0  0  0  0  0  0
    4.5341   23.8424    4.2503 H   0  0  0  0  0  0
    7.4701   23.4364    3.6490 H   0  0  0  0  0  0
    6.4591   26.3019    3.2415 H   0  0  0  0  0  0
    7.8757   25.7175    4.2120 H   0  0  0  0  0  0
    4.5607   28.5289    5.7650 H   0  0  0  0  0  0
    3.5291   29.8354    6.2583 H   0  0  0  0  0  0
    6.0911   29.1161    7.2578 H   0  0  0  0  0  0
    5.5744   31.4047    6.8569 H   0  0  0  0  0  0
    4.1563   31.2639    7.8855 H   0  0  0  0  0  0
    4.3802   31.0287   10.0684 H   0  0  0  0  0  0
    8.0554   30.8057    9.8577 H   0  0  0  0  0  0
    7.9939   30.7129    8.0375 H   0  0  0  0  0  0
    7.0730   32.9867    7.9647 H   0  0  0  0  0  0
    7.1505   33.0626    9.7817 H   0  0  0  0  0  0
    1.3583   30.1459    8.8695 H   0  0  0  0  0  0
  1  2  1  0  0  0
  1 32  1  0  0  0
  2  7  1  0  0  0
  2  3  2  0  0  0
  3  4  1  0  0  0
  3 33  1  0  0  0
  4  5  2  0  0  0
  4 34  1  0  0  0
  5  6  1  0  0  0
  5  8  1  0  0  0
  6  7  2  0  0  0
  6 35  1  0  0  0
  7 36  1  0  0  0
  8 16  2  0  0  0
  8  9  1  0  0  0
  9 10  1  0  0  0
 10 15  2  0  0  0
 10 11  1  0  0  0
 11 12  2  0  0  0
 11 37  1  0  0  0
 12 13  1  0  0  0
 12 38  1  0  0  0
 13 14  2  0  0  0
 13 31  1  0  0  0
 14 15  1  0  0  0
 14 24  1  0  0  0
 15 16  1  0  0  0
 16 17  1  0  0  0
 17 18  2  0  0  0
 17 19  1  0  0  0
 19 23  1  0  0  0
 19 20  1  0  0  0
 20 21  1  0  0  0
 20 39  1  0  0  0
 20 40  1  0  0  0
 21 22  1  0  0  0
 21 23  1  0  0  0
 21 41  1  0  0  0
 23 42  1  0  0  0
 23 43  1  0  0  0
 24 25  1  0  0  0
 24 44  1  0  0  0
 24 45  1  0  0  0
 25 26  1  0  0  0
 25 46  1  0  0  0
 26 27  1  0  0  0
 26 47  1  0  0  0
 26 48  1  0  0  0
 27 30  1  0  0  0
 27 28  1  0  0  0
 27 29  1  0  0  0
 28 49  1  0  0  0
 29 30  1  0  0  0
 29 50  1  0  0  0
 29 51  1  0  0  0
 30 52  1  0  0  0
 30 53  1  0  0  0
 31 54  1  0  0  0
M  END
> <s_m_source_file>
/home/yujie/leadopt/data/result/selection/PSK13/lig_40.sdf

> <i_m_source_file_index>
1

> <i_lp_mmshare_version>
51139

> <i_f3d_flags>
0

> <s_epik_input>
W09IXWMxW2NIXVtjSF1jKFtjSF1bY0hdMSktYyhvMiljKEMoPU8pTjNbQ0gyXVtDSF0oRilbQ0gyXTMpYyhjMjQpYyhjKFtPSF0pW2NIXVtjSF00KVtDSDJdW05IXVtDSDJdQzUoW09IXSlbQ0gyXVtDSDJdNQ==

> <s_epik_cmdline>
J2VwaWtfcHl0aG9uJywgJy1waHQnLCAnMi4wJywgJy1waCcsICc3LjAnLCAnLXRuJywgJzgnLCAnLW1hJywgJzIwMCcsICctaW1hZScsICc8aW5maWxlLm1hZT4nLCAnLW9tYWUnLCAnPG91dGZpbGUubWFlPic=

> <r_epik_Ionization_Penalty>
  2.4078

> <r_epik_Ionization_Penalty_Charging>
  0.0000

> <r_epik_Ionization_Penalty_Neutral>
  2.4078

> <r_epik_State_Penalty>
  2.6637

> <r_epik_Charging_Adjusted_Penalty>
2.66373

> <i_epik_Tot_Q>
0

> <i_epik_Tot_abs_Q>
0

> <s_lp_Force_Field>
OPLS3e

> <r_lp_Energy>
30.3666

> <b_lp_Chiralities_Consistent>
1

> <s_lp_Variant>
/home/yujie/leadopt/data/result/selection/PSK13/lig_40.sdf:1-3

> <s_i_glide_gridfile>
glide-grid_PSK13

> <i_i_glide_lignum>
3

> <i_i_glide_rotatable_bonds>
10

> <r_i_docking_score>
-6.3648040523486

> <r_i_glide_ligand_efficiency>
-0.205316259753181

> <r_i_glide_ligand_efficiency_sa>
-0.644976525271727

> <r_i_glide_ligand_efficiency_ln>
-1.43545837162326

> <r_i_glide_gscore>
-9.0285340523486

> <r_i_glide_lipo>
-4.62340222133054

> <r_i_glide_hbond>
-0.542360998861726

> <r_i_glide_metal>
-0

> <r_i_glide_rewards>
-1.16847536972936

> <r_i_glide_evdw>
-48.0664596557617

> <r_i_glide_ecoul>
-7.03278064727783

> <r_i_glide_erotb>
0.763944617452785

> <r_i_glide_esite>
0

> <r_i_glide_emodel>
-83.4307426414606

> <r_i_glide_energy>
-55.0992403030396

> <r_i_glide_einternal>
9.07206153869629

> <i_i_glide_confnum>
375

> <i_i_glide_posenum>
61

> <r_i_glide_eff_state_penalty>
2.66373

$$$$
