@<TRIPOS>MOLECULE
/home/yujie/leadopt/data/result/selection/PSK13/lig_34.sdf:1
54   58    1
SMALL
USER_CHARGES


@<TRIPOS>ATOM
      1 C1          6.7751   25.6183    3.8659 C.3       1 UNK         0.0000 
      2 N2          5.7336   25.5853    4.8819 N.am      1 UNK         0.0000 
      3 C3          5.7568   26.3098    6.0075 C.2       1 UNK         0.0000 
      4 O4          6.6352   27.1166    6.2892 O.2       1 UNK         0.0000 
      5 C5          4.6913   25.9901    6.9142 C.2       1 UNK         0.0000 
      6 C6          4.4578   24.6998    7.4339 C.2       1 UNK         0.0000 
      7 O7          3.3859   24.6937    8.2751 O.3       1 UNK         0.0000 
      8 C8          2.9202   25.9628    8.3339 C.ar      1 UNK         0.0000 
      9 C9          1.8267   26.3623    9.1054 C.ar      1 UNK         0.0000 
     10 C10         1.4853   27.7093    9.0506 C.ar      1 UNK         0.0000 
     11 C11         2.1920   28.6080    8.2523 C.ar      1 UNK         0.0000 
     12 C12         3.3159   28.2129    7.4996 C.ar      1 UNK         0.0000 
     13 C13         3.6876   26.8414    7.5299 C.ar      1 UNK         0.0000 
     14 C14         4.0581   29.2556    6.6720 C.3       1 UNK         0.0000 
     15 N15         5.3116   29.6849    7.2902 N.3       1 UNK         0.0000 
     16 C16         6.1253   30.4061    6.3325 C.3       1 UNK         0.0000 
     17 C17         7.2193   31.1196    7.1143 C.3       1 UNK         0.0000 
     18 C18         6.6583   31.1656    8.5398 C.3       1 UNK         0.0000 
     19 C19         6.8960   32.4736    9.3103 C.3       1 UNK         0.0000 
     20 O20         8.0331   31.8418   10.0413 O.3       1 UNK         0.0000 
     21 C21         7.5477   30.5023    9.5991 C.3       1 UNK         0.0000 
     22 C22         5.2231   30.6147    8.4099 C.3       1 UNK         0.0000 
     23 O23         1.7406   29.9003    8.2082 O.3       1 UNK         0.0000 
     24 C24         5.1259   23.3641    7.2881 C.ar      1 UNK         0.0000 
     25 C25         6.4860   23.2402    6.9748 C.ar      1 UNK         0.0000 
     26 C26         7.0792   21.9852    6.8435 C.ar      1 UNK         0.0000 
     27 C27         6.3229   20.8326    7.0605 C.ar      1 UNK         0.0000 
     28 C28         4.9696   20.9409    7.3948 C.ar      1 UNK         0.0000 
     29 C29         4.3779   22.1988    7.4961 C.ar      1 UNK         0.0000 
     30 F30         4.2226   19.8422    7.6411 F         1 UNK         0.0000 
     31 O31         6.9369   19.6108    6.9854 O.3       1 UNK         0.0000 
     32 H32         6.4790   25.0217    2.9983 H         1 UNK         0.0000 
     33 H33         6.9635   26.6424    3.5395 H         1 UNK         0.0000 
     34 H34         7.7106   25.2107    4.2615 H         1 UNK         0.0000 
     35 H35         4.9240   25.0113    4.6998 H         1 UNK         0.0000 
     36 H36         1.2837   25.6575    9.7176 H         1 UNK         0.0000 
     37 H37         0.6493   28.0664    9.6377 H         1 UNK         0.0000 
     38 H38         4.2769   28.8073    5.7019 H         1 UNK         0.0000 
     39 H39         3.4326   30.1219    6.4553 H         1 UNK         0.0000 
     40 H40         6.5326   29.6691    5.6448 H         1 UNK         0.0000 
     41 H41         5.5418   31.0917    5.7136 H         1 UNK         0.0000 
     42 H42         8.1574   30.5681    7.0514 H         1 UNK         0.0000 
     43 H43         7.3856   32.1153    6.7034 H         1 UNK         0.0000 
     44 H44         7.2570   33.3272    8.7344 H         1 UNK         0.0000 
     45 H45         6.1356   32.7428   10.0425 H         1 UNK         0.0000 
     46 H46         7.0143   30.0421   10.4295 H         1 UNK         0.0000 
     47 H47         8.3764   29.8899    9.2431 H         1 UNK         0.0000 
     48 H48         4.4976   31.3963    8.1894 H         1 UNK         0.0000 
     49 H49         4.8455   30.1206    9.3069 H         1 UNK         0.0000 
     50 H50         1.2784   30.1757    9.0249 H         1 UNK         0.0000 
     51 H51         7.1012   24.1170    6.8356 H         1 UNK         0.0000 
     52 H52         8.1302   21.9182    6.6018 H         1 UNK         0.0000 
     53 H53         3.3288   22.2601    7.7476 H         1 UNK         0.0000 
     54 H54         7.8875   19.6806    6.8881 H         1 UNK         0.0000 
@<TRIPOS>BOND
     1    1    2 1    
     2    1   32 1    
     3    1   33 1    
     4    1   34 1    
     5    2    3 am   BACKBONE|DICT|INTERRES
     6    2   35 1    
     7    3    4 2    
     8    3    5 1    
     9    5   13 1    
    10    5    6 2    
    11    6    7 1    
    12    6   24 1    
    13    7    8 1    
    14    8   13 ar   
    15    8    9 ar   
    16    9   10 ar   
    17    9   36 1    
    18   10   11 ar   
    19   10   37 1    
    20   11   12 ar   
    21   11   23 1    
    22   12   13 ar   
    23   12   14 1    
    24   14   15 1    
    25   14   38 1    
    26   14   39 1    
    27   15   22 1    
    28   15   16 1    
    29   16   17 1    
    30   16   40 1    
    31   16   41 1    
    32   17   18 1    
    33   17   42 1    
    34   17   43 1    
    35   18   21 1    
    36   18   19 1    
    37   18   22 1    
    38   19   20 1    
    39   19   44 1    
    40   19   45 1    
    41   20   21 1    
    42   21   46 1    
    43   21   47 1    
    44   22   48 1    
    45   22   49 1    
    46   23   50 1    
    47   24   29 ar   
    48   24   25 ar   
    49   25   26 ar   
    50   25   51 1    
    51   26   27 ar   
    52   26   52 1    
    53   27   28 ar   
    54   27   31 1    
    55   28   29 ar   
    56   28   30 1    
    57   29   53 1    
    58   31   54 1    
@<TRIPOS>SUBSTRUCTURE
     1 UNK         1 GROUP             0       ****    0 ROOT    
