/home/yujie/leadopt/data/result/selection/PSK13/lig_31.sdf:1
                    3D
 Schrodinger Suite 2020-3.
 57 61  0  0  1  0            999 V2000
    6.4994   25.6954    4.1004 C   0  0  0  0  0  0
    5.4650   25.6886    5.1224 N   0  0  0  0  0  0
    5.6520   26.0876    6.3828 C   0  0  0  0  0  0
    6.7117   26.5102    6.8416 O   0  0  0  0  0  0
    4.5146   25.8549    7.2068 C   0  0  0  0  0  0
    4.1467   24.5901    7.6969 C   0  0  0  0  0  0
    3.0060   24.6609    8.4414 O   0  0  0  0  0  0
    2.6090   25.9635    8.4194 C   0  0  0  0  0  0
    1.4743   26.4665    9.0551 C   0  0  0  0  0  0
    1.2236   27.8255    8.8924 C   0  0  0  0  0  0
    2.0577   28.6428    8.1285 C   0  0  0  0  0  0
    3.2020   28.1412    7.4838 C   0  0  0  0  0  0
    3.4871   26.7628    7.6414 C   0  0  0  0  0  0
    4.0814   29.0721    6.6494 C   0  0  0  0  0  0
    5.3273   29.3936    7.3387 N   0  0  1  0  0  0
    6.4222   29.7180    6.4420 C   0  0  0  0  0  0
    7.5292   30.1967    7.3687 C   0  0  0  0  0  0
    6.7557   30.8958    8.4991 C   0  0  0  0  0  0
    7.1305   32.3675    8.7376 C   0  0  0  0  0  0
    7.9774   31.9652    9.8964 O   0  0  0  0  0  0
    7.2886   30.6440    9.9162 C   0  0  0  0  0  0
    5.2783   30.5407    8.2376 C   0  0  0  0  0  0
    1.7251   29.9643    8.0417 O   0  0  0  0  0  0
    4.7680   23.2315    7.5773 C   0  0  0  0  0  0
    3.9858   22.0725    7.5884 C   0  0  0  0  0  0
    4.5857   20.8235    7.4262 C   0  0  0  0  0  0
    5.9652   20.7161    7.2416 C   0  0  0  0  0  0
    6.7450   21.8789    7.2403 C   0  0  0  0  0  0
    6.1521   23.1166    7.4275 C   0  0  0  0  0  0
    6.4916   19.4474    7.1049 O   0  0  0  0  0  0
    7.8885   19.3018    6.8759 C   0  0  0  0  0  0
    6.1281   26.2422    3.2414 H   0  0  0  0  0  0
    7.4255   26.1726    4.4242 H   0  0  0  0  0  0
    6.7302   24.6766    3.7893 H   0  0  0  0  0  0
    4.5332   25.4191    4.8408 H   0  0  0  0  0  0
    0.8261   25.8303    9.6403 H   0  0  0  0  0  0
    0.3587   28.2587    9.3712 H   0  0  0  0  0  0
    4.3123   28.5522    5.7192 H   0  0  0  0  0  0
    3.5555   29.9808    6.3553 H   0  0  0  0  0  0
    6.7047   28.8265    5.8842 H   0  0  0  0  0  0
    6.1237   30.4484    5.6905 H   0  0  0  0  0  0
    8.1076   29.3402    7.7208 H   0  0  0  0  0  0
    8.2177   30.8566    6.8417 H   0  0  0  0  0  0
    7.7340   32.8449    7.9686 H   0  0  0  0  0  0
    6.3586   33.0285    9.1250 H   0  0  0  0  0  0
    6.5398   30.6654   10.7138 H   0  0  0  0  0  0
    8.0173   29.8428   10.0388 H   0  0  0  0  0  0
    4.7451   31.3628    7.7590 H   0  0  0  0  0  0
    4.6996   30.3148    9.1352 H   0  0  0  0  0  0
    1.3024   30.2429    8.8750 H   0  0  0  0  0  0
    2.9141   22.1388    7.7066 H   0  0  0  0  0  0
    3.9812   19.9276    7.4356 H   0  0  0  0  0  0
    7.8153   21.8447    7.1173 H   0  0  0  0  0  0
    6.7945   23.9825    7.4507 H   0  0  0  0  0  0
    8.1330   18.2433    6.8026 H   0  0  0  0  0  0
    8.4818   19.7162    7.6950 H   0  0  0  0  0  0
    8.1912   19.7742    5.9409 H   0  0  0  0  0  0
  1  2  1  0  0  0
  1 32  1  0  0  0
  1 33  1  0  0  0
  1 34  1  0  0  0
  2  3  1  0  0  0
  2 35  1  0  0  0
  3  4  2  0  0  0
  3  5  1  0  0  0
  5 13  1  0  0  0
  5  6  2  0  0  0
  6  7  1  0  0  0
  6 24  1  0  0  0
  7  8  1  0  0  0
  8 13  1  0  0  0
  8  9  2  0  0  0
  9 10  1  0  0  0
  9 36  1  0  0  0
 10 11  2  0  0  0
 10 37  1  0  0  0
 11 12  1  0  0  0
 11 23  1  0  0  0
 12 13  2  0  0  0
 12 14  1  0  0  0
 14 15  1  0  0  0
 14 38  1  0  0  0
 14 39  1  0  0  0
 15 22  1  0  0  0
 15 16  1  0  0  0
 16 17  1  0  0  0
 16 40  1  0  0  0
 16 41  1  0  0  0
 17 18  1  0  0  0
 17 42  1  0  0  0
 17 43  1  0  0  0
 18 21  1  0  0  0
 18 19  1  0  0  0
 18 22  1  0  0  0
 19 20  1  0  0  0
 19 44  1  0  0  0
 19 45  1  0  0  0
 20 21  1  0  0  0
 21 46  1  0  0  0
 21 47  1  0  0  0
 22 48  1  0  0  0
 22 49  1  0  0  0
 23 50  1  0  0  0
 24 29  1  0  0  0
 24 25  2  0  0  0
 25 26  1  0  0  0
 25 51  1  0  0  0
 26 27  2  0  0  0
 26 52  1  0  0  0
 27 28  1  0  0  0
 27 30  1  0  0  0
 28 29  2  0  0  0
 28 53  1  0  0  0
 29 54  1  0  0  0
 30 31  1  0  0  0
 31 55  1  0  0  0
 31 56  1  0  0  0
 31 57  1  0  0  0
M  END
> <s_m_source_file>
/home/yujie/leadopt/data/result/selection/PSK13/lig_31.sdf

> <i_m_source_file_index>
1

> <i_lp_mmshare_version>
51139

> <i_f3d_flags>
0

> <s_epik_input>
W2NIXTFbY0hdYyhPW0NIM10pW2NIXVtjSF1jMS1jKG8yKWMoQyg9TylbTkhdW0NIM10pYyhjMjMpYyhjKFtPSF0pW2NIXVtjSF0zKVtDSDJdTihbQ0gyXTQpW0NIMl1bQ0gyXUM0NVtDSDJdT1tDSDJdNQ==

> <s_epik_cmdline>
J2VwaWtfcHl0aG9uJywgJy1waHQnLCAnMi4wJywgJy1waCcsICc3LjAnLCAnLXRuJywgJzgnLCAnLW1hJywgJzIwMCcsICctaW1hZScsICc8aW5maWxlLm1hZT4nLCAnLW9tYWUnLCAnPG91dGZpbGUubWFlPic=

> <r_epik_Ionization_Penalty>
  1.4250

> <r_epik_Ionization_Penalty_Charging>
  0.0000

> <r_epik_Ionization_Penalty_Neutral>
  1.4250

> <r_epik_State_Penalty>
  1.0884

> <r_epik_Charging_Adjusted_Penalty>
1.08838

> <i_epik_Tot_Q>
0

> <i_epik_Tot_abs_Q>
0

> <s_lp_Force_Field>
OPLS3e

> <r_lp_Energy>
32.7985

> <b_lp_Chiralities_Consistent>
1

> <s_lp_Variant>
/home/yujie/leadopt/data/result/selection/PSK13/lig_31.sdf:1-3

> <s_i_glide_gridfile>
glide-grid_PSK13

> <i_i_glide_lignum>
3

> <i_i_glide_rotatable_bonds>
7

> <r_i_docking_score>
-7.3928670769623

> <r_i_glide_ligand_efficiency>
-0.238479583127816

> <r_i_glide_ligand_efficiency_sa>
-0.749155147570557

> <r_i_glide_ligand_efficiency_ln>
-1.66731809002158

> <r_i_glide_gscore>
-8.4812470769623

> <r_i_glide_lipo>
-4.71160025420538

> <r_i_glide_hbond>
-0.16

> <r_i_glide_metal>
-0

> <r_i_glide_rewards>
-0.874536916288185

> <r_i_glide_evdw>
-48.9875640869141

> <r_i_glide_ecoul>
-4.86473560333252

> <r_i_glide_erotb>
0.443978638376849

> <r_i_glide_esite>
0

> <r_i_glide_emodel>
-74.5615703506766

> <r_i_glide_energy>
-53.8522996902466

> <r_i_glide_einternal>
11.1046333312988

> <i_i_glide_confnum>
106

> <i_i_glide_posenum>
50

> <r_i_glide_eff_state_penalty>
1.08838

$$$$
