/home/yujie/leadopt/data/result/selection/PSK13/lig_17.sdf:1
                    3D
 Schrodinger Suite 2020-3.
 52 56  0  0  1  0            999 V2000
    6.7211   25.3808    3.7694 C   0  0  0  0  0  0
    5.7341   25.3408    4.8399 N   0  0  0  0  0  0
    5.7996   26.0405    5.9796 C   0  0  0  0  0  0
    6.7188   26.7965    6.2851 O   0  0  0  0  0  0
    4.6761   25.8267    6.8435 C   0  0  0  0  0  0
    4.3035   24.5811    7.3732 C   0  0  0  0  0  0
    3.1813   24.6702    8.1388 O   0  0  0  0  0  0
    2.8267   25.9783    8.1509 C   0  0  0  0  0  0
    1.7320   26.5011    8.8415 C   0  0  0  0  0  0
    1.5377   27.8758    8.7494 C   0  0  0  0  0  0
    2.4046   28.6911    8.0212 C   0  0  0  0  0  0
    3.5159   28.1632    7.3335 C   0  0  0  0  0  0
    3.7210   26.7636    7.3844 C   0  0  0  0  0  0
    4.5414   29.0866    6.6904 C   0  0  0  0  0  0
    5.7482   29.1296    7.6416 N   0  3  2  0  0  0
    5.5821   30.0310    8.8670 C   0  0  0  0  0  0
    6.7785   30.8751    8.4200 C   0  0  1  0  0  0
    6.5711   32.3328    8.0646 C   0  0  0  0  0  0
    7.0335   32.6255    9.4890 C   0  0  0  0  0  0
    7.7282   31.3010    9.4871 O   0  0  0  0  0  0
    7.0284   29.8860    7.2774 C   0  0  0  0  0  0
    2.1642   30.0382    8.0415 O   0  0  0  0  0  0
    4.8891   23.2161    7.2855 C   0  0  0  0  0  0
    6.2764   23.0564    7.2329 C   0  0  0  0  0  0
    6.8238   21.7872    7.1158 C   0  0  0  0  0  0
    5.9844   20.6817    7.0761 C   0  0  0  0  0  0
    4.6019   20.8226    7.1522 C   0  0  0  0  0  0
    4.0526   22.0960    7.2574 C   0  0  0  0  0  0
    6.5345   19.4424    6.9688 O   0  0  0  0  0  0
    7.6075   25.9525    4.0419 H   0  0  0  0  0  0
    7.0328   24.3700    3.5063 H   0  0  0  0  0  0
    6.2808   25.8402    2.8856 H   0  0  0  0  0  0
    4.8998   24.7974    4.6725 H   0  0  0  0  0  0
    1.0739   25.8671    9.4186 H   0  0  0  0  0  0
    0.7080   28.3298    9.2745 H   0  0  0  0  0  0
    4.9075   28.7071    5.7359 H   0  0  0  0  0  0
    4.2051   30.1162    6.5471 H   0  0  0  0  0  0
    4.6099   30.5280    8.8651 H   0  0  0  0  0  0
    5.7343   29.4426    9.7712 H   0  0  0  0  0  0
    7.2358   32.7255    7.2949 H   0  0  0  0  0  0
    5.5494   32.5223    7.8056 H   0  0  0  0  0  0
    7.7345   33.4428    9.6042 H   0  0  0  0  0  0
    6.2590   32.6401   10.2620 H   0  0  0  0  0  0
    7.8708   29.2056    7.4146 H   0  0  0  0  0  0
    6.9338   30.2577    6.2594 H   0  0  0  0  0  0
    1.5989   30.3013    8.7839 H   0  0  0  0  0  0
    6.9383   23.9092    7.2752 H   0  0  0  0  0  0
    7.8952   21.6585    7.0652 H   0  0  0  0  0  0
    3.9572   19.9556    7.1240 H   0  0  0  0  0  0
    2.9788   22.2092    7.3062 H   0  0  0  0  0  0
    5.8625   18.7638    6.8426 H   0  0  0  0  0  0
    5.9844   28.1822    7.9183 H   0  0  0  0  0  0
  1  2  1  0  0  0
  1 30  1  0  0  0
  1 31  1  0  0  0
  1 32  1  0  0  0
  2  3  1  0  0  0
  2 33  1  0  0  0
  3  4  2  0  0  0
  3  5  1  0  0  0
  5 13  1  0  0  0
  5  6  2  0  0  0
  6  7  1  0  0  0
  6 23  1  0  0  0
  7  8  1  0  0  0
  8 13  1  0  0  0
  8  9  2  0  0  0
  9 10  1  0  0  0
  9 34  1  0  0  0
 10 11  2  0  0  0
 10 35  1  0  0  0
 11 12  1  0  0  0
 11 22  1  0  0  0
 12 13  2  0  0  0
 12 14  1  0  0  0
 14 15  1  0  0  0
 14 36  1  0  0  0
 14 37  1  0  0  0
 15 21  1  0  0  0
 15 16  1  0  0  0
 15 52  1  0  0  0
 16 17  1  0  0  0
 16 38  1  0  0  0
 16 39  1  0  0  0
 17 20  1  0  0  0
 17 18  1  0  0  0
 17 21  1  0  0  0
 18 19  1  0  0  0
 18 40  1  0  0  0
 18 41  1  0  0  0
 19 20  1  0  0  0
 19 42  1  0  0  0
 19 43  1  0  0  0
 21 44  1  0  0  0
 21 45  1  0  0  0
 22 46  1  0  0  0
 23 28  1  0  0  0
 23 24  2  0  0  0
 24 25  1  0  0  0
 24 47  1  0  0  0
 25 26  2  0  0  0
 25 48  1  0  0  0
 26 27  1  0  0  0
 26 29  1  0  0  0
 27 28  2  0  0  0
 27 49  1  0  0  0
 28 50  1  0  0  0
 29 51  1  0  0  0
M  CHG  1  15   1
M  END
> <s_m_source_file>
/home/yujie/leadopt/data/result/selection/PSK13/lig_17.sdf

> <i_m_source_file_index>
1

> <i_lp_mmshare_version>
51139

> <i_f3d_flags>
0

> <s_epik_input>
W2NIXTFbY0hdYyhbT0hdKVtjSF1bY0hdYzEtYyhvMiljKEMoPU8pW05IXVtDSDNdKWMoYzIzKWMoYyhbT0hdKVtjSF1bY0hdMylbQ0gyXU4oW0NIMl00KVtDSDJdQzQ1W0NIMl1bQ0gyXU81

> <s_epik_cmdline>
J2VwaWtfcHl0aG9uJywgJy1waHQnLCAnMi4wJywgJy1waCcsICc3LjAnLCAnLXRuJywgJzgnLCAnLW1hJywgJzIwMCcsICctaW1hZScsICc8aW5maWxlLm1hZT4nLCAnLW9tYWUnLCAnPG91dGZpbGUubWFlPic=

> <r_lp_tautomer_probability>
1

> <r_epik_Ionization_Penalty>
  0.4655

> <r_epik_Ionization_Penalty_Charging>
  0.0164

> <r_epik_Ionization_Penalty_Neutral>
  0.4491

> <r_epik_State_Penalty>
  0.4568

> <r_epik_Charging_Adjusted_Penalty>
0.473196

> <i_epik_Tot_Q>
1

> <i_epik_Tot_abs_Q>
1

> <s_lp_Force_Field>
OPLS3e

> <r_lp_Energy>
25.2188

> <b_lp_Chiralities_Consistent>
1

> <s_lp_Variant>
/home/yujie/leadopt/data/result/selection/PSK13/lig_17.sdf:1-2

> <s_i_glide_gridfile>
glide-grid_PSK13

> <i_i_glide_lignum>
2

> <i_i_glide_rotatable_bonds>
7

> <r_i_docking_score>
-9.3833500717783

> <r_i_glide_ligand_efficiency>
-0.323563795578562

> <r_i_glide_ligand_efficiency_sa>
-0.994090492222993

> <r_i_glide_ligand_efficiency_ln>
-2.14854922520954

> <r_i_glide_gscore>
-9.8401320717783

> <r_i_glide_lipo>
-4.25711902403549

> <r_i_glide_hbond>
-0.464697262220182

> <r_i_glide_metal>
-0

> <r_i_glide_rewards>
-1.31996491425119

> <r_i_glide_evdw>
-43.6363677978516

> <r_i_glide_ecoul>
-14.1118078231812

> <r_i_glide_erotb>
0.50023869209832

> <r_i_glide_esite>
0

> <r_i_glide_emodel>
-84.1784968857457

> <r_i_glide_energy>
-57.7481756210327

> <r_i_glide_einternal>
6.25097894668579

> <i_i_glide_confnum>
9

> <i_i_glide_posenum>
63

> <r_i_glide_eff_state_penalty>
0.456782

$$$$
