/home/yujie/leadopt/data/result/selection/PSK13/lig_34.sdf:1
                    3D
 Schrodinger Suite 2020-3.
 54 58  0  0  1  0            999 V2000
    6.7751   25.6183    3.8659 C   0  0  0  0  0  0
    5.7336   25.5853    4.8819 N   0  0  0  0  0  0
    5.7568   26.3098    6.0075 C   0  0  0  0  0  0
    6.6352   27.1166    6.2892 O   0  0  0  0  0  0
    4.6913   25.9901    6.9142 C   0  0  0  0  0  0
    4.4578   24.6998    7.4339 C   0  0  0  0  0  0
    3.3859   24.6937    8.2751 O   0  0  0  0  0  0
    2.9202   25.9628    8.3339 C   0  0  0  0  0  0
    1.8267   26.3623    9.1054 C   0  0  0  0  0  0
    1.4853   27.7093    9.0506 C   0  0  0  0  0  0
    2.1920   28.6080    8.2523 C   0  0  0  0  0  0
    3.3159   28.2129    7.4996 C   0  0  0  0  0  0
    3.6876   26.8414    7.5299 C   0  0  0  0  0  0
    4.0581   29.2556    6.6720 C   0  0  0  0  0  0
    5.3116   29.6849    7.2902 N   0  0  1  0  0  0
    6.1253   30.4061    6.3325 C   0  0  0  0  0  0
    7.2193   31.1196    7.1143 C   0  0  0  0  0  0
    6.6583   31.1656    8.5398 C   0  0  0  0  0  0
    6.8960   32.4736    9.3103 C   0  0  0  0  0  0
    8.0331   31.8418   10.0413 O   0  0  0  0  0  0
    7.5477   30.5023    9.5991 C   0  0  0  0  0  0
    5.2231   30.6147    8.4099 C   0  0  0  0  0  0
    1.7406   29.9003    8.2082 O   0  0  0  0  0  0
    5.1259   23.3641    7.2881 C   0  0  0  0  0  0
    6.4860   23.2402    6.9748 C   0  0  0  0  0  0
    7.0792   21.9852    6.8435 C   0  0  0  0  0  0
    6.3229   20.8326    7.0605 C   0  0  0  0  0  0
    4.9696   20.9409    7.3948 C   0  0  0  0  0  0
    4.3779   22.1988    7.4961 C   0  0  0  0  0  0
    4.2226   19.8422    7.6411 F   0  0  0  0  0  0
    6.9369   19.6108    6.9854 O   0  0  0  0  0  0
    6.4790   25.0217    2.9983 H   0  0  0  0  0  0
    6.9635   26.6424    3.5395 H   0  0  0  0  0  0
    7.7106   25.2107    4.2615 H   0  0  0  0  0  0
    4.9240   25.0113    4.6998 H   0  0  0  0  0  0
    1.2837   25.6575    9.7176 H   0  0  0  0  0  0
    0.6493   28.0664    9.6377 H   0  0  0  0  0  0
    4.2769   28.8073    5.7019 H   0  0  0  0  0  0
    3.4326   30.1219    6.4553 H   0  0  0  0  0  0
    6.5326   29.6691    5.6448 H   0  0  0  0  0  0
    5.5418   31.0917    5.7136 H   0  0  0  0  0  0
    8.1574   30.5681    7.0514 H   0  0  0  0  0  0
    7.3856   32.1153    6.7034 H   0  0  0  0  0  0
    7.2570   33.3272    8.7344 H   0  0  0  0  0  0
    6.1356   32.7428   10.0425 H   0  0  0  0  0  0
    7.0143   30.0421   10.4295 H   0  0  0  0  0  0
    8.3764   29.8899    9.2431 H   0  0  0  0  0  0
    4.4976   31.3963    8.1894 H   0  0  0  0  0  0
    4.8455   30.1206    9.3069 H   0  0  0  0  0  0
    1.2784   30.1757    9.0249 H   0  0  0  0  0  0
    7.1012   24.1170    6.8356 H   0  0  0  0  0  0
    8.1302   21.9182    6.6018 H   0  0  0  0  0  0
    3.3288   22.2601    7.7476 H   0  0  0  0  0  0
    7.8875   19.6806    6.8881 H   0  0  0  0  0  0
  1  2  1  0  0  0
  1 32  1  0  0  0
  1 33  1  0  0  0
  1 34  1  0  0  0
  2  3  1  0  0  0
  2 35  1  0  0  0
  3  4  2  0  0  0
  3  5  1  0  0  0
  5 13  1  0  0  0
  5  6  2  0  0  0
  6  7  1  0  0  0
  6 24  1  0  0  0
  7  8  1  0  0  0
  8 13  1  0  0  0
  8  9  2  0  0  0
  9 10  1  0  0  0
  9 36  1  0  0  0
 10 11  2  0  0  0
 10 37  1  0  0  0
 11 12  1  0  0  0
 11 23  1  0  0  0
 12 13  2  0  0  0
 12 14  1  0  0  0
 14 15  1  0  0  0
 14 38  1  0  0  0
 14 39  1  0  0  0
 15 22  1  0  0  0
 15 16  1  0  0  0
 16 17  1  0  0  0
 16 40  1  0  0  0
 16 41  1  0  0  0
 17 18  1  0  0  0
 17 42  1  0  0  0
 17 43  1  0  0  0
 18 21  1  0  0  0
 18 19  1  0  0  0
 18 22  1  0  0  0
 19 20  1  0  0  0
 19 44  1  0  0  0
 19 45  1  0  0  0
 20 21  1  0  0  0
 21 46  1  0  0  0
 21 47  1  0  0  0
 22 48  1  0  0  0
 22 49  1  0  0  0
 23 50  1  0  0  0
 24 29  1  0  0  0
 24 25  2  0  0  0
 25 26  1  0  0  0
 25 51  1  0  0  0
 26 27  2  0  0  0
 26 52  1  0  0  0
 27 28  1  0  0  0
 27 31  1  0  0  0
 28 29  2  0  0  0
 28 30  1  0  0  0
 29 53  1  0  0  0
 31 54  1  0  0  0
M  END
> <s_m_source_file>
/home/yujie/leadopt/data/result/selection/PSK13/lig_34.sdf

> <i_m_source_file_index>
1

> <i_lp_mmshare_version>
51139

> <i_f3d_flags>
0

> <s_epik_input>
W2NIXTFjKEYpYyhbT0hdKVtjSF1bY0hdYzEtYyhvMiljKEMoPU8pW05IXVtDSDNdKWMoYzIzKWMoYyhbT0hdKVtjSF1bY0hdMylbQ0gyXU4oW0NIMl00KVtDSDJdW0NIMl1DNDVbQ0gyXU9bQ0gyXTU=

> <s_epik_cmdline>
J2VwaWtfcHl0aG9uJywgJy1waHQnLCAnMi4wJywgJy1waCcsICc3LjAnLCAnLXRuJywgJzgnLCAnLW1hJywgJzIwMCcsICctaW1hZScsICc8aW5maWxlLm1hZT4nLCAnLW9tYWUnLCAnPG91dGZpbGUubWFlPic=

> <r_epik_Ionization_Penalty>
  1.4402

> <r_epik_Ionization_Penalty_Charging>
  0.0000

> <r_epik_Ionization_Penalty_Neutral>
  1.4402

> <r_epik_State_Penalty>
  1.1031

> <r_epik_Charging_Adjusted_Penalty>
1.10308

> <i_epik_Tot_Q>
0

> <i_epik_Tot_abs_Q>
0

> <s_lp_Force_Field>
OPLS3e

> <r_lp_Energy>
30.5249

> <b_lp_Chiralities_Consistent>
1

> <s_lp_Variant>
/home/yujie/leadopt/data/result/selection/PSK13/lig_34.sdf:1-3

> <s_i_glide_gridfile>
glide-grid_PSK13

> <i_i_glide_lignum>
3

> <i_i_glide_rotatable_bonds>
7

> <r_i_docking_score>
-7.47870694231899

> <r_i_glide_ligand_efficiency>
-0.241248611042548

> <r_i_glide_ligand_efficiency_sa>
-0.757853718277871

> <r_i_glide_ligand_efficiency_ln>
-1.68667761033546

> <r_i_glide_gscore>
-8.58178694231899

> <r_i_glide_lipo>
-4.59209932762865

> <r_i_glide_hbond>
-0.166669322703765

> <r_i_glide_metal>
-0

> <r_i_glide_rewards>
-0.900165499652508

> <r_i_glide_evdw>
-48.276237487793

> <r_i_glide_ecoul>
-5.97925043106079

> <r_i_glide_erotb>
0.436539781401591

> <r_i_glide_esite>
-0.0486931346868928

> <r_i_glide_emodel>
-82.9955838706565

> <r_i_glide_energy>
-54.2554879188538

> <r_i_glide_einternal>
2.96487164497375

> <i_i_glide_confnum>
103

> <i_i_glide_posenum>
278

> <r_i_glide_eff_state_penalty>
1.10308

$$$$
