/home/yujie/leadopt/data/result/selection/PSK13/lig_46.sdf:1
                    3D
 Schrodinger Suite 2020-3.
 47 50  0  0  1  0            999 V2000
    5.9786   25.5583    4.8104 C   0  0  0  0  0  0
    5.7328   26.3274    6.1039 C   0  0  0  0  0  0
    6.3860   27.3448    6.3162 O   0  0  0  0  0  0
    4.6422   25.8962    6.9682 C   0  0  0  0  0  0
    4.3630   24.5790    7.3683 C   0  0  0  0  0  0
    3.2803   24.5411    8.1916 O   0  0  0  0  0  0
    2.8405   25.8130    8.3269 C   0  0  0  0  0  0
    1.7336   26.1769    9.0893 C   0  0  0  0  0  0
    1.3967   27.5225    9.0885 C   0  0  0  0  0  0
    2.1416   28.4616    8.3836 C   0  0  0  0  0  0
    3.2847   28.1073    7.6416 C   0  0  0  0  0  0
    3.6379   26.7310    7.5974 C   0  0  0  0  0  0
    4.0704   29.2142    6.9403 C   0  0  0  0  0  0
    5.2615   29.7217    7.7821 N   0  3  0  0  0  0
    6.1307   30.7752    7.0676 C   0  0  0  0  0  0
    6.7595   31.6133    8.1880 C   0  0  0  0  0  0
    6.1035   31.1761    9.5012 C   0  0  0  0  0  0
    4.8540   30.4011    9.1021 C   0  0  0  0  0  0
    1.7340   29.7629    8.4409 O   0  0  0  0  0  0
    5.0109   23.2491    7.1609 C   0  0  0  0  0  0
    6.3948   23.0962    7.0081 C   0  0  0  0  0  0
    6.9133   21.8096    6.8418 C   0  0  0  0  0  0
    6.0488   20.7149    6.8423 C   0  0  0  0  0  0
    4.6833   20.9418    7.0118 C   0  0  0  0  0  0
    4.1621   22.1831    7.1706 N   0  0  0  0  0  0
    6.5340   19.4474    6.6826 O   0  0  0  0  0  0
    5.2711   24.7385    4.6895 H   0  0  0  0  0  0
    5.8728   26.2300    3.9584 H   0  0  0  0  0  0
    6.9903   25.1553    4.7992 H   0  0  0  0  0  0
    1.1588   25.4435    9.6342 H   0  0  0  0  0  0
    0.5343   27.8523    9.6414 H   0  0  0  0  0  0
    4.4763   28.8972    5.9800 H   0  0  0  0  0  0
    3.4652   30.0991    6.7362 H   0  0  0  0  0  0
    6.8395   30.2341    6.4408 H   0  0  0  0  0  0
    5.4647   31.3787    6.4485 H   0  0  0  0  0  0
    7.8417   31.4734    8.2232 H   0  0  0  0  0  0
    6.5821   32.6746    8.0041 H   0  0  0  0  0  0
    5.8521   32.0327   10.1310 H   0  0  0  0  0  0
    6.7724   30.5299   10.0753 H   0  0  0  0  0  0
    4.0065   31.0479    8.8706 H   0  0  0  0  0  0
    4.5211   29.6458    9.8151 H   0  0  0  0  0  0
    1.1894   30.0098    9.2184 H   0  0  0  0  0  0
    7.0596   23.9470    7.0259 H   0  0  0  0  0  0
    7.9763   21.6599    6.7222 H   0  0  0  0  0  0
    3.9781   20.1235    7.0207 H   0  0  0  0  0  0
    5.8320   18.7863    6.6515 H   0  0  0  0  0  0
    5.8407   28.9193    8.0059 H   0  0  0  0  0  0
  1  2  1  0  0  0
  1 27  1  0  0  0
  1 28  1  0  0  0
  1 29  1  0  0  0
  2  3  2  0  0  0
  2  4  1  0  0  0
  4 12  1  0  0  0
  4  5  2  0  0  0
  5  6  1  0  0  0
  5 20  1  0  0  0
  6  7  1  0  0  0
  7 12  1  0  0  0
  7  8  2  0  0  0
  8  9  1  0  0  0
  8 30  1  0  0  0
  9 10  2  0  0  0
  9 31  1  0  0  0
 10 11  1  0  0  0
 10 19  1  0  0  0
 11 12  2  0  0  0
 11 13  1  0  0  0
 13 14  1  0  0  0
 13 32  1  0  0  0
 13 33  1  0  0  0
 14 18  1  0  0  0
 14 15  1  0  0  0
 14 47  1  0  0  0
 15 16  1  0  0  0
 15 34  1  0  0  0
 15 35  1  0  0  0
 16 17  1  0  0  0
 16 36  1  0  0  0
 16 37  1  0  0  0
 17 18  1  0  0  0
 17 38  1  0  0  0
 17 39  1  0  0  0
 18 40  1  0  0  0
 18 41  1  0  0  0
 19 42  1  0  0  0
 20 25  1  0  0  0
 20 21  2  0  0  0
 21 22  1  0  0  0
 21 43  1  0  0  0
 22 23  2  0  0  0
 22 44  1  0  0  0
 23 24  1  0  0  0
 23 26  1  0  0  0
 24 25  2  0  0  0
 24 45  1  0  0  0
 26 46  1  0  0  0
M  CHG  1  14   1
M  END
> <s_m_source_file>
/home/yujie/leadopt/data/result/selection/PSK13/lig_46.sdf

> <i_m_source_file_index>
1

> <i_lp_mmshare_version>
51139

> <i_f3d_flags>
0

> <s_epik_input>
bjFbY0hdYyhbT0hdKVtjSF1bY0hdYzEtYyhvMiljKEMoPU8pW0NIM10pYyhjMjMpYyhjKFtPSF0pW2NIXVtjSF0zKVtDSDJdTjRbQ0gyXVtDSDJdW0NIMl1bQ0gyXTQ=

> <s_epik_cmdline>
J2VwaWtfcHl0aG9uJywgJy1waHQnLCAnMi4wJywgJy1waCcsICc3LjAnLCAnLXRuJywgJzgnLCAnLW1hJywgJzIwMCcsICctaW1hZScsICc8aW5maWxlLm1hZT4nLCAnLW9tYWUnLCAnPG91dGZpbGUubWFlPic=

> <r_lp_tautomer_probability>
0.436558

> <r_epik_Ionization_Penalty>
  0.7753

> <r_epik_Ionization_Penalty_Charging>
  0.0211

> <r_epik_Ionization_Penalty_Neutral>
  0.7542

> <r_epik_State_Penalty>
  1.3579

> <r_epik_Charging_Adjusted_Penalty>
1.37906

> <i_epik_Tot_Q>
1

> <i_epik_Tot_abs_Q>
1

> <s_lp_Force_Field>
OPLS3e

> <r_lp_Energy>
30.8052

> <b_lp_Chiralities_Consistent>
1

> <s_lp_Variant>
/home/yujie/leadopt/data/result/selection/PSK13/lig_46.sdf:1-4

> <s_i_glide_gridfile>
glide-grid_PSK13

> <i_i_glide_lignum>
4

> <i_i_glide_rotatable_bonds>
6

> <r_i_docking_score>
-8.58495269047406

> <r_i_glide_ligand_efficiency>
-0.330190488095156

> <r_i_glide_ligand_efficiency_sa>
-0.978188021745067

> <r_i_glide_ligand_efficiency_ln>
-2.01614796983045

> <r_i_glide_gscore>
-9.94290269047406

> <r_i_glide_lipo>
-3.87477519238893

> <r_i_glide_hbond>
-0.456546182600019

> <r_i_glide_metal>
-0

> <r_i_glide_rewards>
-1.5783354541852

> <r_i_glide_evdw>
-41.5066184997559

> <r_i_glide_ecoul>
-16.1109676361084

> <r_i_glide_erotb>
0.458730209104137

> <r_i_glide_esite>
0

> <r_i_glide_emodel>
-98.8093398358287

> <r_i_glide_energy>
-57.6175861358643

> <r_i_glide_einternal>
2.48197078704834

> <i_i_glide_confnum>
16

> <i_i_glide_posenum>
92

> <r_i_glide_eff_state_penalty>
1.35795

$$$$
