@<TRIPOS>MOLECULE
/home/yujie/leadopt/data/result/selection/PSK13/lig_47.sdf:1
46   49    1
SMALL
USER_CHARGES


@<TRIPOS>ATOM
      1 C1          6.1395   25.5141    4.6835 C.3       1 UNK         0.0000 
      2 C2          5.9332   26.2839    5.9847 C.2       1 UNK         0.0000 
      3 O3          6.6698   27.2372    6.2275 O.2       1 UNK         0.0000 
      4 C4          4.7974   25.9260    6.8236 C.2       1 UNK         0.0000 
      5 C5          4.4565   24.6356    7.2586 C.2       1 UNK         0.0000 
      6 O6          3.3408   24.6670    8.0412 O.3       1 UNK         0.0000 
      7 C7          2.9341   25.9603    8.0965 C.ar      1 UNK         0.0000 
      8 C8          1.8165   26.3987    8.8077 C.ar      1 UNK         0.0000 
      9 C9          1.5326   27.7560    8.7258 C.ar      1 UNK         0.0000 
     10 C10         2.3375   28.6307    7.9968 C.ar      1 UNK         0.0000 
     11 C11         3.5023   28.2054    7.3277 C.ar      1 UNK         0.0000 
     12 C12         3.7954   26.8174    7.3636 C.ar      1 UNK         0.0000 
     13 C13         4.3882   29.2412    6.6320 C.3       1 UNK         0.0000 
     14 N14         5.5572   29.6757    7.5361 N.4       1 UNK         0.0000 
     15 C15         5.2347   30.4496    8.8209 C.3       1 UNK         0.0000 
     16 C16         6.4111   31.3911    8.5308 C.3       1 UNK         0.0000 
     17 C17         6.4270   30.8555    7.0916 C.3       1 UNK         0.0000 
     18 O18         1.9764   29.8382    7.9470 O.co2     1 UNK         0.0000 
     19 C19         5.0803   23.2847    7.1095 C.ar      1 UNK         0.0000 
     20 C20         6.4639   23.1082    6.9872 C.ar      1 UNK         0.0000 
     21 C21         6.9759   21.8147    6.8415 C.ar      1 UNK         0.0000 
     22 C22         6.0876   20.7303    6.8426 C.ar      1 UNK         0.0000 
     23 C23         4.7237   20.9819    6.9927 C.ar      1 UNK         0.0000 
     24 N24         4.2174   22.2324    7.1272 N.ar      1 UNK         0.0000 
     25 O25         6.5342   19.4438    6.7111 O.3       1 UNK         0.0000 
     26 C26         8.4751   21.6035    6.7100 C.3       1 UNK         0.0000 
     27 H27         5.4248   24.6968    4.5867 H         1 UNK         0.0000 
     28 H28         6.0118   26.1868    3.8355 H         1 UNK         0.0000 
     29 H29         7.1484   25.1069    4.6445 H         1 UNK         0.0000 
     30 H30         1.1993   25.7148    9.3692 H         1 UNK         0.0000 
     31 H31         0.6690   28.1520    9.2416 H         1 UNK         0.0000 
     32 H32         4.8309   28.8720    5.7073 H         1 UNK         0.0000 
     33 H33         3.8657   30.1661    6.3761 H         1 UNK         0.0000 
     34 H34         4.2465   30.9115    8.7450 H         1 UNK         0.0000 
     35 H35         5.3469   29.7915    9.6849 H         1 UNK         0.0000 
     36 H36         7.3107   31.1585    9.1022 H         1 UNK         0.0000 
     37 H37         6.1902   32.4542    8.6299 H         1 UNK         0.0000 
     38 H38         7.3861   30.4757    6.7350 H         1 UNK         0.0000 
     39 H39         5.8778   31.4620    6.3664 H         1 UNK         0.0000 
     40 H40         7.1296   23.9575    7.0027 H         1 UNK         0.0000 
     41 H41         4.0070   20.1751    7.0100 H         1 UNK         0.0000 
     42 H42         5.8133   18.8037    6.6760 H         1 UNK         0.0000 
     43 H43         9.0326   22.5405    6.7267 H         1 UNK         0.0000 
     44 H44         8.6991   21.0864    5.7763 H         1 UNK         0.0000 
     45 H45         8.8351   20.9739    7.5254 H         1 UNK         0.0000 
     46 H46         6.1280   28.8628    7.7417 H         1 UNK         0.0000 
@<TRIPOS>BOND
     1    1    2 1    
     2    1   27 1    
     3    1   28 1    
     4    1   29 1    
     5    2    3 2    
     6    2    4 1    
     7    4   12 1    
     8    4    5 2    
     9    5    6 1    
    10    5   19 1    
    11    6    7 1    
    12    7   12 ar   
    13    7    8 ar   
    14    8    9 ar   
    15    8   30 1    
    16    9   10 ar   
    17    9   31 1    
    18   10   11 ar   
    19   10   18 1    
    20   11   12 ar   
    21   11   13 1    
    22   13   14 1    
    23   13   32 1    
    24   13   33 1    
    25   14   17 1    
    26   14   15 1    
    27   14   46 1    
    28   15   16 1    
    29   15   34 1    
    30   15   35 1    
    31   16   17 1    
    32   16   36 1    
    33   16   37 1    
    34   17   38 1    
    35   17   39 1    
    36   19   24 ar   
    37   19   20 ar   
    38   20   21 ar   
    39   20   40 1    
    40   21   22 ar   
    41   21   26 1    
    42   22   23 ar   
    43   22   25 1    
    44   23   24 ar   
    45   23   41 1    
    46   25   42 1    
    47   26   43 1    
    48   26   44 1    
    49   26   45 1    
@<TRIPOS>SUBSTRUCTURE
     1 UNK         1 GROUP             0       ****    0 ROOT    
