@<TRIPOS>MOLECULE
/home/yujie/leadopt/data/result/selection/PSK13/lig_20.sdf:1
55   59    1
SMALL
USER_CHARGES


@<TRIPOS>ATOM
      1 C1          6.7123   25.4268    3.8110 C.3       1 UNK         0.0000 
      2 N2          5.7346   25.3264    4.8871 N.am      1 UNK         0.0000 
      3 C3          5.7446   26.0631    6.0048 C.2       1 UNK         0.0000 
      4 O4          6.5877   26.9158    6.2770 O.2       1 UNK         0.0000 
      5 C5          4.6583   25.7772    6.8921 C.2       1 UNK         0.0000 
      6 C6          4.3890   24.5123    7.4491 C.2       1 UNK         0.0000 
      7 O7          3.3005   24.5560    8.2691 O.3       1 UNK         0.0000 
      8 C8          2.8644   25.8402    8.2789 C.ar      1 UNK         0.0000 
      9 C9          1.7706   26.3099    9.0110 C.ar      1 UNK         0.0000 
     10 C10         1.4774   27.6671    8.9010 C.ar      1 UNK         0.0000 
     11 C11         2.2316   28.5134    8.0883 C.ar      1 UNK         0.0000 
     12 C12         3.3303   28.0375    7.3480 C.ar      1 UNK         0.0000 
     13 C13         3.6607   26.6636    7.4499 C.ar      1 UNK         0.0000 
     14 C14         4.1421   29.0005    6.4997 C.3       1 UNK         0.0000 
     15 N15         5.4426   29.3730    7.2090 N.4       1 UNK         0.0000 
     16 C16         5.4113   30.3764    8.3624 C.3       1 UNK         0.0000 
     17 C17         6.7454   30.9397    7.8296 C.3       1 UNK         0.0000 
     18 C18         7.9951   30.4927    8.5589 C.3       1 UNK         0.0000 
     19 C19         7.9770   31.4625    9.7388 C.3       1 UNK         0.0000 
     20 O20         7.3428   32.6423    9.2348 O.3       1 UNK         0.0000 
     21 C21         6.9467   32.4455    7.8840 C.3       1 UNK         0.0000 
     22 C22         6.4230   30.2851    6.4831 C.3       1 UNK         0.0000 
     23 O23         1.8816   29.8385    8.0417 O.3       1 UNK         0.0000 
     24 C24         5.0506   23.1700    7.3588 C.ar      1 UNK         0.0000 
     25 C25         6.4383   23.0698    7.1923 C.ar      1 UNK         0.0000 
     26 C26         7.0498   21.8214    7.1187 C.ar      1 UNK         0.0000 
     27 C27         6.2798   20.6666    7.2390 C.ar      1 UNK         0.0000 
     28 C28         4.8995   20.7515    7.4022 C.ar      1 UNK         0.0000 
     29 C29         4.2858   22.0018    7.4626 C.ar      1 UNK         0.0000 
     30 O30         6.8954   19.4445    7.2403 O.3       1 UNK         0.0000 
     31 H31         7.0945   24.4352    3.5643 H         1 UNK         0.0000 
     32 H32         6.2416   25.8379    2.9182 H         1 UNK         0.0000 
     33 H33         7.5638   26.0608    4.0693 H         1 UNK         0.0000 
     34 H34         4.9746   24.6735    4.7619 H         1 UNK         0.0000 
     35 H35         1.1908   25.6482    9.6385 H         1 UNK         0.0000 
     36 H36         0.6449   28.0769    9.4578 H         1 UNK         0.0000 
     37 H37         4.4889   28.5456    5.5724 H         1 UNK         0.0000 
     38 H38         3.6333   29.9337    6.2576 H         1 UNK         0.0000 
     39 H39         4.5398   31.0288    8.2576 H         1 UNK         0.0000 
     40 H40         5.4457   29.8389    9.3104 H         1 UNK         0.0000 
     41 H41         7.9829   29.4438    8.8571 H         1 UNK         0.0000 
     42 H42         8.8871   30.6407    7.9431 H         1 UNK         0.0000 
     43 H43         7.3345   31.0429   10.5126 H         1 UNK         0.0000 
     44 H44         8.9880   31.6543   10.1038 H         1 UNK         0.0000 
     45 H45         7.7300   32.7767    7.2031 H         1 UNK         0.0000 
     46 H46         6.0812   33.0395    7.6434 H         1 UNK         0.0000 
     47 H47         7.1985   29.6585    6.0457 H         1 UNK         0.0000 
     48 H48         5.8575   30.8997    5.7766 H         1 UNK         0.0000 
     49 H49         1.3620   30.1289    8.8089 H         1 UNK         0.0000 
     50 H50         7.0542   23.9536    7.1281 H         1 UNK         0.0000 
     51 H51         8.1217   21.7585    6.9959 H         1 UNK         0.0000 
     52 H52         4.3132   19.8489    7.4932 H         1 UNK         0.0000 
     53 H53         3.2136   22.0559    7.5926 H         1 UNK         0.0000 
     54 H54         7.8528   19.5077    7.2709 H         1 UNK         0.0000 
     55 H55         5.9099   28.5162    7.4873 H         1 UNK         0.0000 
@<TRIPOS>BOND
     1    1    2 1    
     2    1   31 1    
     3    1   32 1    
     4    1   33 1    
     5    2    3 am   BACKBONE|DICT|INTERRES
     6    2   34 1    
     7    3    4 2    
     8    3    5 1    
     9    5   13 1    
    10    5    6 2    
    11    6    7 1    
    12    6   24 1    
    13    7    8 1    
    14    8   13 ar   
    15    8    9 ar   
    16    9   10 ar   
    17    9   35 1    
    18   10   11 ar   
    19   10   36 1    
    20   11   12 ar   
    21   11   23 1    
    22   12   13 ar   
    23   12   14 1    
    24   14   15 1    
    25   14   37 1    
    26   14   38 1    
    27   15   22 1    
    28   15   16 1    
    29   15   55 1    
    30   16   17 1    
    31   16   39 1    
    32   16   40 1    
    33   17   21 1    
    34   17   18 1    
    35   17   22 1    
    36   18   19 1    
    37   18   41 1    
    38   18   42 1    
    39   19   20 1    
    40   19   43 1    
    41   19   44 1    
    42   20   21 1    
    43   21   45 1    
    44   21   46 1    
    45   22   47 1    
    46   22   48 1    
    47   23   49 1    
    48   24   29 ar   
    49   24   25 ar   
    50   25   26 ar   
    51   25   50 1    
    52   26   27 ar   
    53   26   51 1    
    54   27   28 ar   
    55   27   30 1    
    56   28   29 ar   
    57   28   52 1    
    58   29   53 1    
    59   30   54 1    
@<TRIPOS>SUBSTRUCTURE
     1 UNK         1 GROUP             0       ****    0 ROOT    
