@<TRIPOS>MOLECULE
/home/yujie/leadopt/data/result/selection/PSK13/lig_23.sdf:1
57   61    1
SMALL
USER_CHARGES


@<TRIPOS>ATOM
      1 C1          7.1142   25.7514    3.9680 C.3       1 UNK         0.0000 
      2 N2          6.0363   25.3877    4.8944 N.am      1 UNK         0.0000 
      3 C3          5.3483   24.1734    4.4495 C.3       1 UNK         0.0000 
      4 C4          5.8228   26.1016    6.0394 C.2       1 UNK         0.0000 
      5 O5          6.5522   27.0376    6.3574 O.2       1 UNK         0.0000 
      6 C6          4.7099   25.7733    6.9156 C.2       1 UNK         0.0000 
      7 C7          4.4684   24.5075    7.4955 C.2       1 UNK         0.0000 
      8 O8          3.3672   24.5251    8.2957 O.3       1 UNK         0.0000 
      9 C9          2.9339   25.8057    8.3474 C.ar      1 UNK         0.0000 
     10 C10         1.8640   26.2415    9.1320 C.ar      1 UNK         0.0000 
     11 C11         1.6103   27.6087    9.1353 C.ar      1 UNK         0.0000 
     12 C12         2.3668   28.4906    8.3681 C.ar      1 UNK         0.0000 
     13 C13         3.4187   28.0461    7.5450 C.ar      1 UNK         0.0000 
     14 C14         3.7344   26.6573    7.5460 C.ar      1 UNK         0.0000 
     15 C15         4.1480   29.0775    6.6931 C.3       1 UNK         0.0000 
     16 N16         5.3740   29.5783    7.3110 N.3       1 UNK         0.0000 
     17 C17         6.1344   30.3423    6.3470 C.3       1 UNK         0.0000 
     18 C18         7.2319   31.0615    7.1190 C.3       1 UNK         0.0000 
     19 C19         6.6830   31.0935    8.5507 C.3       1 UNK         0.0000 
     20 C20         6.8863   32.4094    9.3144 C.3       1 UNK         0.0000 
     21 O21         8.0480   31.8184   10.0374 O.3       1 UNK         0.0000 
     22 C22         7.6019   30.4620    9.6047 C.3       1 UNK         0.0000 
     23 C23         5.2638   30.4992    8.4348 C.3       1 UNK         0.0000 
     24 O24         2.0659   29.8251    8.4415 O.3       1 UNK         0.0000 
     25 C25         5.1392   23.1685    7.4262 C.ar      1 UNK         0.0000 
     26 C26         4.3653   22.0046    7.5118 C.ar      1 UNK         0.0000 
     27 C27         4.9624   20.7529    7.3919 C.ar      1 UNK         0.0000 
     28 C28         6.3364   20.6664    7.1827 C.ar      1 UNK         0.0000 
     29 C29         7.1169   21.8157    7.1001 C.ar      1 UNK         0.0000 
     30 C30         6.5221   23.0648    7.2425 C.ar      1 UNK         0.0000 
     31 O31         6.9336   19.4426    7.0732 O.3       1 UNK         0.0000 
     32 H32         7.5954   26.6996    4.2122 H         1 UNK         0.0000 
     33 H33         7.8840   24.9783    3.9591 H         1 UNK         0.0000 
     34 H34         6.7201   25.8416    2.9554 H         1 UNK         0.0000 
     35 H35         4.5339   23.8787    5.0963 H         1 UNK         0.0000 
     36 H36         4.9371   24.2828    3.4475 H         1 UNK         0.0000 
     37 H37         6.0522   23.3398    4.4186 H         1 UNK         0.0000 
     38 H38         1.2915   25.5523    9.7352 H         1 UNK         0.0000 
     39 H39         0.8158   28.0020    9.7509 H         1 UNK         0.0000 
     40 H40         4.3990   28.5986    5.7456 H         1 UNK         0.0000 
     41 H41         3.4893   29.9081    6.4343 H         1 UNK         0.0000 
     42 H42         6.5339   29.6216    5.6417 H         1 UNK         0.0000 
     43 H43         5.5157   31.0232    5.7568 H         1 UNK         0.0000 
     44 H44         8.1740   30.5181    7.0413 H         1 UNK         0.0000 
     45 H45         7.3851   32.0613    6.7107 H         1 UNK         0.0000 
     46 H46         7.2097   33.2733    8.7320 H         1 UNK         0.0000 
     47 H47         6.1269   32.6527   10.0543 H         1 UNK         0.0000 
     48 H48         7.0896   29.9887   10.4410 H         1 UNK         0.0000 
     49 H49         8.4468   29.8746    9.2430 H         1 UNK         0.0000 
     50 H50         4.5053   31.2547    8.2253 H         1 UNK         0.0000 
     51 H51         4.9147   29.9886    9.3338 H         1 UNK         0.0000 
     52 H52         1.5137   30.0847    9.2021 H         1 UNK         0.0000 
     53 H53         3.2959   22.0663    7.6527 H         1 UNK         0.0000 
     54 H54         4.3568   19.8598    7.4520 H         1 UNK         0.0000 
     55 H55         8.1833   21.7373    6.9442 H         1 UNK         0.0000 
     56 H56         7.1410   23.9484    7.1878 H         1 UNK         0.0000 
     57 H57         6.3036   18.7235    7.1699 H         1 UNK         0.0000 
@<TRIPOS>BOND
     1    1    2 1    
     2    1   32 1    
     3    1   33 1    
     4    1   34 1    
     5    2    3 1    
     6    2    4 am   BACKBONE|DICT|INTERRES
     7    3   35 1    
     8    3   36 1    
     9    3   37 1    
    10    4    5 2    
    11    4    6 1    
    12    6   14 1    
    13    6    7 2    
    14    7    8 1    
    15    7   25 1    
    16    8    9 1    
    17    9   14 ar   
    18    9   10 ar   
    19   10   11 ar   
    20   10   38 1    
    21   11   12 ar   
    22   11   39 1    
    23   12   13 ar   
    24   12   24 1    
    25   13   14 ar   
    26   13   15 1    
    27   15   16 1    
    28   15   40 1    
    29   15   41 1    
    30   16   23 1    
    31   16   17 1    
    32   17   18 1    
    33   17   42 1    
    34   17   43 1    
    35   18   19 1    
    36   18   44 1    
    37   18   45 1    
    38   19   22 1    
    39   19   20 1    
    40   19   23 1    
    41   20   21 1    
    42   20   46 1    
    43   20   47 1    
    44   21   22 1    
    45   22   48 1    
    46   22   49 1    
    47   23   50 1    
    48   23   51 1    
    49   24   52 1    
    50   25   30 ar   
    51   25   26 ar   
    52   26   27 ar   
    53   26   53 1    
    54   27   28 ar   
    55   27   54 1    
    56   28   29 ar   
    57   28   31 1    
    58   29   30 ar   
    59   29   55 1    
    60   30   56 1    
    61   31   57 1    
@<TRIPOS>SUBSTRUCTURE
     1 UNK         1 GROUP             0       ****    0 ROOT    
