@<TRIPOS>MOLECULE
/home/yujie/leadopt/data/result/selection/PSK13/lig_24.sdf:1
59   64    1
SMALL
USER_CHARGES


@<TRIPOS>ATOM
      1 O1          6.9145   19.5987    6.9599 O.3       1 UNK         0.0000 
      2 C2          6.2931   20.8031    7.1455 C.ar      1 UNK         0.0000 
      3 C3          7.0609   21.9598    7.2419 C.ar      1 UNK         0.0000 
      4 C4          6.4389   23.1769    7.4976 C.ar      1 UNK         0.0000 
      5 C5          5.0432   23.2652    7.5561 C.ar      1 UNK         0.0000 
      6 C6          4.2815   22.0926    7.4530 C.ar      1 UNK         0.0000 
      7 C7          4.9066   20.8616    7.2587 C.ar      1 UNK         0.0000 
      8 C8          4.3530   24.5978    7.6611 C.2       1 UNK         0.0000 
      9 O9          3.1654   24.5557    8.3274 O.3       1 UNK         0.0000 
     10 C10         2.6578   25.8121    8.3216 C.ar      1 UNK         0.0000 
     11 C11         1.4465   26.1788    8.9095 C.ar      1 UNK         0.0000 
     12 C12         1.0643   27.5086    8.7895 C.ar      1 UNK         0.0000 
     13 C13         1.8571   28.4347    8.1168 C.ar      1 UNK         0.0000 
     14 C14         3.1051   28.0791    7.5640 C.ar      1 UNK         0.0000 
     15 C15         3.5083   26.7152    7.6417 C.ar      1 UNK         0.0000 
     16 C16         4.6365   25.9070    7.2043 C.2       1 UNK         0.0000 
     17 C17         5.8467   26.3155    6.5232 C.2       1 UNK         0.0000 
     18 O18         6.4099   27.3653    6.8195 O.2       1 UNK         0.0000 
     19 N19         6.3035   25.5290    5.5276 N.am      1 UNK         0.0000 
     20 C20         7.1751   25.9465    4.3991 C.3       1 UNK         0.0000 
     21 C21         6.1081   25.2667    3.5328 C.3       1 UNK         0.0000 
     22 C22         5.6110   24.4801    4.7361 C.3       1 UNK         0.0000 
     23 C23         3.9913   29.1823    6.9914 C.3       1 UNK         0.0000 
     24 N24         5.0503   29.6010    8.0317 N.4       1 UNK         0.0000 
     25 C25         4.4573   30.2221    9.3075 C.3       1 UNK         0.0000 
     26 C26         5.6434   30.8684   10.0057 C.3       1 UNK         0.0000 
     27 C27         6.7101   31.0951    8.9190 C.3       1 UNK         0.0000 
     28 C28         7.4077   32.4627    8.9630 C.3       1 UNK         0.0000 
     29 O29         8.6008   31.8421    9.6115 O.3       1 UNK         0.0000 
     30 C30         8.0926   30.4941    9.2402 C.3       1 UNK         0.0000 
     31 C31         6.0836   30.6463    7.5875 C.3       1 UNK         0.0000 
     32 O32         1.3926   29.7226    8.0447 O.3       1 UNK         0.0000 
     33 H33         7.8691   19.6674    6.9826 H         1 UNK         0.0000 
     34 H34         8.1370   21.9171    7.1667 H         1 UNK         0.0000 
     35 H35         7.0521   24.0591    7.6005 H         1 UNK         0.0000 
     36 H36         3.2020   22.1324    7.5015 H         1 UNK         0.0000 
     37 H37         4.3198   19.9553    7.1784 H         1 UNK         0.0000 
     38 H38         0.8343   25.4583    9.4323 H         1 UNK         0.0000 
     39 H39         0.1317   27.8304    9.2317 H         1 UNK         0.0000 
     40 H40         7.1430   27.0189    4.1999 H         1 UNK         0.0000 
     41 H41         8.1522   25.4612    4.4134 H         1 UNK         0.0000 
     42 H42         6.4977   24.6531    2.7154 H         1 UNK         0.0000 
     43 H43         5.3391   25.9683    3.2354 H         1 UNK         0.0000 
     44 H44         6.0533   23.4903    4.8549 H         1 UNK         0.0000 
     45 H45         4.5334   24.5575    4.8365 H         1 UNK         0.0000 
     46 H46         4.5312   28.8659    6.0986 H         1 UNK         0.0000 
     47 H47         3.4503   30.0946    6.7341 H         1 UNK         0.0000 
     48 H48         3.7326   30.9598    8.9595 H         1 UNK         0.0000 
     49 H49         3.9261   29.4630    9.8825 H         1 UNK         0.0000 
     50 H50         5.3215   31.7981   10.4791 H         1 UNK         0.0000 
     51 H51         5.9942   30.2055   10.7953 H         1 UNK         0.0000 
     52 H52         7.7178   32.8751    8.0017 H         1 UNK         0.0000 
     53 H53         6.9743   33.2162    9.6226 H         1 UNK         0.0000 
     54 H54         8.1552   29.8210   10.0923 H         1 UNK         0.0000 
     55 H55         8.6805   30.1356    8.3931 H         1 UNK         0.0000 
     56 H56         6.7552   30.1679    6.8730 H         1 UNK         0.0000 
     57 H57         5.5268   31.4339    7.0753 H         1 UNK         0.0000 
     58 H58         0.9971   30.0137    8.8949 H         1 UNK         0.0000 
     59 H59         5.5580   28.7541    8.2690 H         1 UNK         0.0000 
@<TRIPOS>BOND
     1    1    2 1    
     2    1   33 1    
     3    2    7 ar   
     4    2    3 ar   
     5    3    4 ar   
     6    3   34 1    
     7    4    5 ar   
     8    4   35 1    
     9    5    6 ar   
    10    5    8 1    
    11    6    7 ar   
    12    6   36 1    
    13    7   37 1    
    14    8   16 2    
    15    8    9 1    
    16    9   10 1    
    17   10   15 ar   
    18   10   11 ar   
    19   11   12 ar   
    20   11   38 1    
    21   12   13 ar   
    22   12   39 1    
    23   13   14 ar   
    24   13   32 1    
    25   14   15 ar   
    26   14   23 1    
    27   15   16 1    
    28   16   17 1    
    29   17   18 2    
    30   17   19 am   BACKBONE|DICT|INTERRES
    31   19   22 1    
    32   19   20 1    
    33   20   21 1    
    34   20   40 1    
    35   20   41 1    
    36   21   22 1    
    37   21   42 1    
    38   21   43 1    
    39   22   44 1    
    40   22   45 1    
    41   23   24 1    
    42   23   46 1    
    43   23   47 1    
    44   24   31 1    
    45   24   25 1    
    46   24   59 1    
    47   25   26 1    
    48   25   48 1    
    49   25   49 1    
    50   26   27 1    
    51   26   50 1    
    52   26   51 1    
    53   27   30 1    
    54   27   28 1    
    55   27   31 1    
    56   28   29 1    
    57   28   52 1    
    58   28   53 1    
    59   29   30 1    
    60   30   54 1    
    61   30   55 1    
    62   31   56 1    
    63   31   57 1    
    64   32   58 1    
@<TRIPOS>SUBSTRUCTURE
     1 UNK         1 GROUP             0       ****    0 ROOT    
