@<TRIPOS>MOLECULE
18629-1
41   42    1
SMALL
USER_CHARGES


@<TRIPOS>ATOM
      1 C1         24.0510   12.2016   30.2637 C.3       1 UNK         0.0000 
      2 C2         23.3159   10.8864   30.5326 C.3       1 UNK         0.0000 
      3 O3         22.1655   11.1828   31.3207 O.3       1 UNK         0.0000 
      4 C4         21.3477   10.1523   31.7514 C.ar      1 UNK         0.0000 
      5 N5         21.6919    8.8874   31.3853 N.ar      1 UNK         0.0000 
      6 C6         20.8972    7.8767   31.7648 C.ar      1 UNK         0.0000 
      7 C7         19.7610    8.0525   32.5388 C.ar      1 UNK         0.0000 
      8 C8         19.4157    9.3373   32.9151 C.ar      1 UNK         0.0000 
      9 N9         18.2588    9.4438   33.6763 N.pl3     1 UNK         0.0000 
     10 C10        20.2113   10.4260   32.5218 C.ar      1 UNK         0.0000 
     11 C11        19.8989   11.8070   32.8723 C.1       1 UNK         0.0000 
     12 N12        19.6587   12.9061   33.1464 N.1       1 UNK         0.0000 
     13 N13        21.3873    6.6638   31.3301 N.am      1 UNK         0.0000 
     14 C14        20.7487    5.5080   31.1215 C.2       1 UNK         0.0000 
     15 O15        19.5319    5.3796   31.2433 O.2       1 UNK         0.0000 
     16 C16        21.5762    4.2864   30.6944 C.3       1 UNK         0.0000 
     17 C17        23.0915    4.4911   30.6827 C.ar      1 UNK         0.0000 
     18 C18        23.6888    5.3698   29.7694 C.ar      1 UNK         0.0000 
     19 C19        25.0671    5.5919   29.8016 C.ar      1 UNK         0.0000 
     20 C20        25.7101    6.5802   28.8490 C.3       1 UNK         0.0000 
     21 C21        25.8566    4.9019   30.7231 C.ar      1 UNK         0.0000 
     22 C22        25.2705    4.0092   31.6200 C.ar      1 UNK         0.0000 
     23 C23        23.8912    3.8073   31.6026 C.ar      1 UNK         0.0000 
     24 H24        24.9431   12.0347   29.6609 H         1 UNK         0.0000 
     25 H25        23.4095   12.8989   29.7244 H         1 UNK         0.0000 
     26 H26        24.3546   12.6790   31.1949 H         1 UNK         0.0000 
     27 H27        23.0222   10.4181   29.5906 H         1 UNK         0.0000 
     28 H28        23.9768   10.1935   31.0585 H         1 UNK         0.0000 
     29 H29        19.1563    7.2141   32.8416 H         1 UNK         0.0000 
     30 H30        17.7834    8.6037   33.9927 H         1 UNK         0.0000 
     31 H31        17.8900   10.3575   33.9302 H         1 UNK         0.0000 
     32 H32        22.3762    6.6961   31.1563 H         1 UNK         0.0000 
     33 H33        21.3185    3.4656   31.3622 H         1 UNK         0.0000 
     34 H34        21.2476    3.9881   29.7032 H         1 UNK         0.0000 
     35 H35        23.0789    5.8960   29.0477 H         1 UNK         0.0000 
     36 H36        24.9881    7.3051   28.4726 H         1 UNK         0.0000 
     37 H37        26.5045    7.1383   29.3471 H         1 UNK         0.0000 
     38 H38        26.1450    6.0542   27.9989 H         1 UNK         0.0000 
     39 H39        26.9251    5.0640   30.7500 H         1 UNK         0.0000 
     40 H40        25.8856    3.4782   32.3328 H         1 UNK         0.0000 
     41 H41        23.4493    3.1153   32.3060 H         1 UNK         0.0000 
@<TRIPOS>BOND
     1    1    2 1    
     2    1   24 1    
     3    1   25 1    
     4    1   26 1    
     5    2    3 1    
     6    2   27 1    
     7    2   28 1    
     8    3    4 1    
     9    4   10 ar   
    10    4    5 ar   
    11    5    6 ar   
    12    6    7 ar   
    13    6   13 1    
    14    7    8 ar   
    15    7   29 1    
    16    8    9 1    
    17    8   10 ar   
    18    9   30 1    
    19    9   31 1    
    20   10   11 1    
    21   11   12 3    
    22   13   14 am   BACKBONE|DICT|INTERRES
    23   13   32 1    
    24   14   15 2    
    25   14   16 1    
    26   16   17 1    
    27   16   33 1    
    28   16   34 1    
    29   17   23 ar   
    30   17   18 ar   
    31   18   19 ar   
    32   18   35 1    
    33   19   20 1    
    34   19   21 ar   
    35   20   36 1    
    36   20   37 1    
    37   20   38 1    
    38   21   22 ar   
    39   21   39 1    
    40   22   23 ar   
    41   22   40 1    
    42   23   41 1    
@<TRIPOS>SUBSTRUCTURE
     1 UNK         1 GROUP             0       ****    0 ROOT    
