@<TRIPOS>MOLECULE
18630-1
41   42    1
SMALL
USER_CHARGES


@<TRIPOS>ATOM
      1 C1         24.0212   12.2423   30.2763 C.3       1 UNK         0.0000 
      2 C2         23.2929   10.9217   30.5380 C.3       1 UNK         0.0000 
      3 O3         22.1435   11.2077   31.3313 O.3       1 UNK         0.0000 
      4 C4         21.3312   10.1711   31.7577 C.ar      1 UNK         0.0000 
      5 N5         21.6809    8.9094   31.3858 N.ar      1 UNK         0.0000 
      6 C6         20.8904    7.8933   31.7600 C.ar      1 UNK         0.0000 
      7 C7         19.7538    8.0604   32.5352 C.ar      1 UNK         0.0000 
      8 C8         19.4031    9.3419   32.9176 C.ar      1 UNK         0.0000 
      9 N9         18.2457    9.4395   33.6789 N.pl3     1 UNK         0.0000 
     10 C10        20.1936   10.4361   32.5290 C.ar      1 UNK         0.0000 
     11 C11        19.8748   11.8145   32.8832 C.1       1 UNK         0.0000 
     12 N12        19.6299   12.9119   33.1596 N.1       1 UNK         0.0000 
     13 N13        21.3867    6.6852   31.3195 N.am      1 UNK         0.0000 
     14 C14        20.7626    5.5181   31.1286 C.2       1 UNK         0.0000 
     15 O15        19.5491    5.3722   31.2624 O.2       1 UNK         0.0000 
     16 C16        21.6082    4.3050   30.7113 C.3       1 UNK         0.0000 
     17 C17        23.1035    4.5843   30.5577 C.ar      1 UNK         0.0000 
     18 C18        24.0149    4.0448   31.4691 C.ar      1 UNK         0.0000 
     19 C19        25.3756    4.3277   31.3494 C.ar      1 UNK         0.0000 
     20 C20        25.8350    5.1529   30.3201 C.ar      1 UNK         0.0000 
     21 C21        27.3129    5.4673   30.1984 C.3       1 UNK         0.0000 
     22 C22        24.9278    5.6839   29.4014 C.ar      1 UNK         0.0000 
     23 C23        23.5681    5.4012   29.5204 C.ar      1 UNK         0.0000 
     24 H24        24.9125   12.0836   29.6701 H         1 UNK         0.0000 
     25 H25        23.3751   12.9405   29.7437 H         1 UNK         0.0000 
     26 H26        24.3253   12.7145   31.2099 H         1 UNK         0.0000 
     27 H27        22.9984   10.4586   29.5936 H         1 UNK         0.0000 
     28 H28        23.9584   10.2281   31.0572 H         1 UNK         0.0000 
     29 H29        19.1525    7.2183   32.8345 H         1 UNK         0.0000 
     30 H30        17.7760    8.5960   33.9948 H         1 UNK         0.0000 
     31 H31        17.8735   10.3508   33.9369 H         1 UNK         0.0000 
     32 H32        22.3717    6.7302   31.1256 H         1 UNK         0.0000 
     33 H33        21.4430    3.5138   31.4423 H         1 UNK         0.0000 
     34 H34        21.2203    3.9323   29.7668 H         1 UNK         0.0000 
     35 H35        23.6745    3.4074   32.2732 H         1 UNK         0.0000 
     36 H36        26.0730    3.9081   32.0605 H         1 UNK         0.0000 
     37 H37        27.8096    4.7114   29.5901 H         1 UNK         0.0000 
     38 H38        27.4730    6.4405   29.7324 H         1 UNK         0.0000 
     39 H39        27.7937    5.4911   31.1768 H         1 UNK         0.0000 
     40 H40        25.2772    6.3171   28.5974 H         1 UNK         0.0000 
     41 H41        22.8717    5.8252   28.8104 H         1 UNK         0.0000 
@<TRIPOS>BOND
     1    1    2 1    
     2    1   24 1    
     3    1   25 1    
     4    1   26 1    
     5    2    3 1    
     6    2   27 1    
     7    2   28 1    
     8    3    4 1    
     9    4   10 ar   
    10    4    5 ar   
    11    5    6 ar   
    12    6    7 ar   
    13    6   13 1    
    14    7    8 ar   
    15    7   29 1    
    16    8    9 1    
    17    8   10 ar   
    18    9   30 1    
    19    9   31 1    
    20   10   11 1    
    21   11   12 3    
    22   13   14 am   BACKBONE|DICT|INTERRES
    23   13   32 1    
    24   14   15 2    
    25   14   16 1    
    26   16   17 1    
    27   16   33 1    
    28   16   34 1    
    29   17   23 ar   
    30   17   18 ar   
    31   18   19 ar   
    32   18   35 1    
    33   19   20 ar   
    34   19   36 1    
    35   20   21 1    
    36   20   22 ar   
    37   21   37 1    
    38   21   38 1    
    39   21   39 1    
    40   22   23 ar   
    41   22   40 1    
    42   23   41 1    
@<TRIPOS>SUBSTRUCTURE
     1 UNK         1 GROUP             0       ****    0 ROOT    
