@<TRIPOS>MOLECULE
18628-1
41   42    1
SMALL
USER_CHARGES


@<TRIPOS>ATOM
      1 C1         23.9605   12.3163   30.2947 C.3       1 UNK         0.0000 
      2 C2         23.2559   10.9824   30.5536 C.3       1 UNK         0.0000 
      3 O3         22.1036   11.2446   31.3514 O.3       1 UNK         0.0000 
      4 C4         21.3110   10.1914   31.7754 C.ar      1 UNK         0.0000 
      5 N5         21.6913    8.9382   31.4088 N.ar      1 UNK         0.0000 
      6 C6         20.9227    7.9051   31.7793 C.ar      1 UNK         0.0000 
      7 C7         19.7725    8.0448   32.5397 C.ar      1 UNK         0.0000 
      8 C8         19.3904    9.3202   32.9187 C.ar      1 UNK         0.0000 
      9 N9         18.2233    9.3985   33.6687 N.pl3     1 UNK         0.0000 
     10 C10        20.1628   10.4312   32.5383 C.ar      1 UNK         0.0000 
     11 C11        19.8175   11.8036   32.8910 C.1       1 UNK         0.0000 
     12 N12        19.5528   12.8968   33.1655 N.1       1 UNK         0.0000 
     13 N13        21.4664    6.7163   31.3474 N.am      1 UNK         0.0000 
     14 C14        20.9017    5.5224   31.1455 C.2       1 UNK         0.0000 
     15 O15        19.7006    5.3105   31.3000 O.2       1 UNK         0.0000 
     16 C16        21.8103    4.3697   30.6812 C.3       1 UNK         0.0000 
     17 C17        23.2677    4.7656   30.3673 C.ar      1 UNK         0.0000 
     18 C18        24.3654    4.2247   31.0652 C.ar      1 UNK         0.0000 
     19 C19        24.1953    3.1869   32.1607 C.3       1 UNK         0.0000 
     20 C20        25.6604    4.6622   30.7690 C.ar      1 UNK         0.0000 
     21 C21        25.8785    5.6251   29.7872 C.ar      1 UNK         0.0000 
     22 C22        24.8016    6.1467   29.0788 C.ar      1 UNK         0.0000 
     23 C23        23.5087    5.7102   29.3592 C.ar      1 UNK         0.0000 
     24 H24        24.2592   12.7902   31.2292 H         1 UNK         0.0000 
     25 H25        24.8528   12.1755   29.6855 H         1 UNK         0.0000 
     26 H26        23.3008   13.0052   29.7667 H         1 UNK         0.0000 
     27 H27        22.9669   10.5177   29.6084 H         1 UNK         0.0000 
     28 H28        23.9355   10.2989   31.0678 H         1 UNK         0.0000 
     29 H29        19.1895    7.1877   32.8320 H         1 UNK         0.0000 
     30 H30        17.8428   10.3048   33.9318 H         1 UNK         0.0000 
     31 H31        17.7717    8.5486   33.9946 H         1 UNK         0.0000 
     32 H32        22.4445    6.8125   31.1370 H         1 UNK         0.0000 
     33 H33        21.7436    3.5904   31.4370 H         1 UNK         0.0000 
     34 H34        21.3668    3.9449   29.7835 H         1 UNK         0.0000 
     35 H35        23.5756    2.3534   31.8283 H         1 UNK         0.0000 
     36 H36        25.1503    2.7671   32.4785 H         1 UNK         0.0000 
     37 H37        23.7383    3.6561   33.0277 H         1 UNK         0.0000 
     38 H38        26.5075    4.2624   31.3084 H         1 UNK         0.0000 
     39 H39        26.8826    5.9668   29.5753 H         1 UNK         0.0000 
     40 H40        24.9756    6.8924   28.3166 H         1 UNK         0.0000 
     41 H41        22.6795    6.1271   28.8055 H         1 UNK         0.0000 
@<TRIPOS>BOND
     1    1    2 1    
     2    1   24 1    
     3    1   25 1    
     4    1   26 1    
     5    2    3 1    
     6    2   27 1    
     7    2   28 1    
     8    3    4 1    
     9    4   10 ar   
    10    4    5 ar   
    11    5    6 ar   
    12    6    7 ar   
    13    6   13 1    
    14    7    8 ar   
    15    7   29 1    
    16    8    9 1    
    17    8   10 ar   
    18    9   30 1    
    19    9   31 1    
    20   10   11 1    
    21   11   12 3    
    22   13   14 am   BACKBONE|DICT|INTERRES
    23   13   32 1    
    24   14   15 2    
    25   14   16 1    
    26   16   17 1    
    27   16   33 1    
    28   16   34 1    
    29   17   23 ar   
    30   17   18 ar   
    31   18   19 1    
    32   18   20 ar   
    33   19   35 1    
    34   19   36 1    
    35   19   37 1    
    36   20   21 ar   
    37   20   38 1    
    38   21   22 ar   
    39   21   39 1    
    40   22   23 ar   
    41   22   40 1    
    42   23   41 1    
@<TRIPOS>SUBSTRUCTURE
     1 UNK         1 GROUP             0       ****    0 ROOT    
