@<TRIPOS>MOLECULE
18635-1
44   45    1
SMALL
USER_CHARGES


@<TRIPOS>ATOM
      1 C1         23.9496   12.4061   30.2951 C.3       1 UNK         0.0000 
      2 C2         23.2519   11.0659   30.5395 C.3       1 UNK         0.0000 
      3 O3         22.1059   11.3120   31.3507 O.3       1 UNK         0.0000 
      4 C4         21.3257   10.2498   31.7750 C.ar      1 UNK         0.0000 
      5 N5         21.7076    9.0020   31.3906 N.ar      1 UNK         0.0000 
      6 C6         20.9482    7.9622   31.7631 C.ar      1 UNK         0.0000 
      7 C7         19.8115    8.0884   32.5458 C.ar      1 UNK         0.0000 
      8 C8         19.4246    9.3586   32.9354 C.ar      1 UNK         0.0000 
      9 N9         18.2605    9.4247   33.6906 N.pl3     1 UNK         0.0000 
     10 C10        20.1835   10.4770   32.5507 C.ar      1 UNK         0.0000 
     11 C11        19.8271   11.8457   32.9062 C.1       1 UNK         0.0000 
     12 N12        19.5534   12.9361   33.1819 N.1       1 UNK         0.0000 
     13 N13        21.4602    6.7905   31.2552 N.am      1 UNK         0.0000 
     14 C14        20.8690    5.6163   31.0257 C.2       1 UNK         0.0000 
     15 O15        19.7072    5.3517   31.3317 O.2       1 UNK         0.0000 
     16 C16        21.6960    4.6002   30.2412 C.3       1 UNK         0.0000 
     17 C17        23.0923    4.3587   30.8149 C.ar      1 UNK         0.0000 
     18 C18        23.3320    3.5009   31.9082 C.ar      1 UNK         0.0000 
     19 C19        22.2245    2.7564   32.6419 C.3       1 UNK         0.0000 
     20 C20        24.6378    3.3402   32.3790 C.ar      1 UNK         0.0000 
     21 C21        25.7007    4.0060   31.7729 C.ar      1 UNK         0.0000 
     22 C22        25.4683    4.8553   30.6932 C.ar      1 UNK         0.0000 
     23 C23        26.6266    5.5872   30.0438 C.3       1 UNK         0.0000 
     24 C24        24.1669    5.0304   30.2231 C.ar      1 UNK         0.0000 
     25 H25        24.8368   12.2785   29.6758 H         1 UNK         0.0000 
     26 H26        23.2828   13.1011   29.7843 H         1 UNK         0.0000 
     27 H27        24.2552   12.8660   31.2344 H         1 UNK         0.0000 
     28 H28        22.9560   10.6141   29.5902 H         1 UNK         0.0000 
     29 H29        23.9386   10.3777   31.0378 H         1 UNK         0.0000 
     30 H30        19.2323    7.2271   32.8336 H         1 UNK         0.0000 
     31 H31        17.8088    8.5700   34.0033 H         1 UNK         0.0000 
     32 H32        17.8688   10.3268   33.9516 H         1 UNK         0.0000 
     33 H33        22.4122    6.9078   30.9611 H         1 UNK         0.0000 
     34 H34        21.1583    3.6552   30.1892 H         1 UNK         0.0000 
     35 H35        21.7531    4.9685   29.2242 H         1 UNK         0.0000 
     36 H36        21.3553    2.5384   32.0255 H         1 UNK         0.0000 
     37 H37        22.5860    1.7998   33.0229 H         1 UNK         0.0000 
     38 H38        21.8978    3.3487   33.4963 H         1 UNK         0.0000 
     39 H39        24.8349    2.6931   33.2226 H         1 UNK         0.0000 
     40 H40        26.7047    3.8657   32.1475 H         1 UNK         0.0000 
     41 H41        27.2822    6.0176   30.8015 H         1 UNK         0.0000 
     42 H42        27.2127    4.8995   29.4338 H         1 UNK         0.0000 
     43 H43        26.2815    6.4018   29.4053 H         1 UNK         0.0000 
     44 H44        23.9868    5.7101   29.4031 H         1 UNK         0.0000 
@<TRIPOS>BOND
     1    1    2 1    
     2    1   25 1    
     3    1   26 1    
     4    1   27 1    
     5    2    3 1    
     6    2   28 1    
     7    2   29 1    
     8    3    4 1    
     9    4   10 ar   
    10    4    5 ar   
    11    5    6 ar   
    12    6    7 ar   
    13    6   13 1    
    14    7    8 ar   
    15    7   30 1    
    16    8    9 1    
    17    8   10 ar   
    18    9   31 1    
    19    9   32 1    
    20   10   11 1    
    21   11   12 3    
    22   13   14 am   BACKBONE|DICT|INTERRES
    23   13   33 1    
    24   14   15 2    
    25   14   16 1    
    26   16   17 1    
    27   16   34 1    
    28   16   35 1    
    29   17   24 ar   
    30   17   18 ar   
    31   18   19 1    
    32   18   20 ar   
    33   19   36 1    
    34   19   37 1    
    35   19   38 1    
    36   20   21 ar   
    37   20   39 1    
    38   21   22 ar   
    39   21   40 1    
    40   22   23 1    
    41   22   24 ar   
    42   23   41 1    
    43   23   42 1    
    44   23   43 1    
    45   24   44 1    
@<TRIPOS>SUBSTRUCTURE
     1 UNK         1 GROUP             0       ****    0 ROOT    
