@<TRIPOS>MOLECULE
18633-1
42   43    1
SMALL
USER_CHARGES


@<TRIPOS>ATOM
      1 C1         24.0387   12.2179   30.2669 C.3       1 UNK         0.0000 
      2 C2         23.3044   10.9016   30.5332 C.3       1 UNK         0.0000 
      3 O3         22.1563   11.1951   31.3256 O.3       1 UNK         0.0000 
      4 C4         21.3390   10.1633   31.7540 C.ar      1 UNK         0.0000 
      5 N5         21.6823    8.8992   31.3837 N.ar      1 UNK         0.0000 
      6 C6         20.8867    7.8880   31.7599 C.ar      1 UNK         0.0000 
      7 C7         19.7522    8.0618   32.5365 C.ar      1 UNK         0.0000 
      8 C8         19.4083    9.3453   32.9173 C.ar      1 UNK         0.0000 
      9 N9         18.2524    9.4490   33.6800 N.pl3     1 UNK         0.0000 
     10 C10        20.2035   10.4351   32.5260 C.ar      1 UNK         0.0000 
     11 C11        19.8910   11.8152   32.8794 C.1       1 UNK         0.0000 
     12 N12        19.6510   12.9138   33.1554 N.1       1 UNK         0.0000 
     13 N13        21.3748    6.6763   31.3202 N.am      1 UNK         0.0000 
     14 C14        20.7393    5.5159   31.1264 C.2       1 UNK         0.0000 
     15 O15        19.5238    5.3827   31.2542 O.2       1 UNK         0.0000 
     16 C16        21.5737    4.2933   30.7142 C.3       1 UNK         0.0000 
     17 C17        23.0754    4.5499   30.5850 C.ar      1 UNK         0.0000 
     18 C18        23.9617    4.0062   31.5176 C.ar      1 UNK         0.0000 
     19 C19        25.3276    4.2685   31.4147 C.ar      1 UNK         0.0000 
     20 C20        25.8300    5.0672   30.3878 C.ar      1 UNK         0.0000 
     21 C21        24.9363    5.6034   29.4476 C.ar      1 UNK         0.0000 
     22 C22        23.5696    5.3480   29.5477 C.ar      1 UNK         0.0000 
     23 O23        27.1928    5.2764   30.3815 O.3       1 UNK         0.0000 
     24 C24        27.7622    6.0804   29.3514 C.3       1 UNK         0.0000 
     25 H25        24.9291   12.0530   29.6611 H         1 UNK         0.0000 
     26 H26        23.3956   12.9170   29.7318 H         1 UNK         0.0000 
     27 H27        24.3449   12.6920   31.1989 H         1 UNK         0.0000 
     28 H28        23.0079   10.4366   29.5904 H         1 UNK         0.0000 
     29 H29        23.9667   10.2069   31.0548 H         1 UNK         0.0000 
     30 H30        19.1471    7.2232   32.8380 H         1 UNK         0.0000 
     31 H31        17.7774    8.6080   33.9939 H         1 UNK         0.0000 
     32 H32        17.8829   10.3621   33.9354 H         1 UNK         0.0000 
     33 H33        22.3609    6.7127   31.1322 H         1 UNK         0.0000 
     34 H34        21.3859    3.5003   31.4380 H         1 UNK         0.0000 
     35 H35        21.1948    3.9318   29.7615 H         1 UNK         0.0000 
     36 H36        23.5982    3.3827   32.3233 H         1 UNK         0.0000 
     37 H37        26.0138    3.8530   32.1380 H         1 UNK         0.0000 
     38 H38        25.2874    6.2225   28.6362 H         1 UNK         0.0000 
     39 H39        22.8915    5.7767   28.8218 H         1 UNK         0.0000 
     40 H40        28.8350    6.1759   29.5197 H         1 UNK         0.0000 
     41 H41        27.6209    5.6285   28.3678 H         1 UNK         0.0000 
     42 H42        27.3422    7.0878   29.3414 H         1 UNK         0.0000 
@<TRIPOS>BOND
     1    1    2 1    
     2    1   25 1    
     3    1   26 1    
     4    1   27 1    
     5    2    3 1    
     6    2   28 1    
     7    2   29 1    
     8    3    4 1    
     9    4   10 ar   
    10    4    5 ar   
    11    5    6 ar   
    12    6    7 ar   
    13    6   13 1    
    14    7    8 ar   
    15    7   30 1    
    16    8    9 1    
    17    8   10 ar   
    18    9   31 1    
    19    9   32 1    
    20   10   11 1    
    21   11   12 3    
    22   13   14 am   BACKBONE|DICT|INTERRES
    23   13   33 1    
    24   14   15 2    
    25   14   16 1    
    26   16   17 1    
    27   16   34 1    
    28   16   35 1    
    29   17   22 ar   
    30   17   18 ar   
    31   18   19 ar   
    32   18   36 1    
    33   19   20 ar   
    34   19   37 1    
    35   20   21 ar   
    36   20   23 1    
    37   21   22 ar   
    38   21   38 1    
    39   22   39 1    
    40   23   24 1    
    41   24   40 1    
    42   24   41 1    
    43   24   42 1    
@<TRIPOS>SUBSTRUCTURE
     1 UNK         1 GROUP             0       ****    0 ROOT    
