@<TRIPOS>MOLECULE
18626-1
38   39    1
SMALL
USER_CHARGES


@<TRIPOS>ATOM
      1 C1         23.9635   12.4497   30.2903 C.3       1 UNK         0.0000 
      2 C2         23.2574   11.1110   30.5189 C.3       1 UNK         0.0000 
      3 O3         22.1169   11.3548   31.3379 O.3       1 UNK         0.0000 
      4 C4         21.3337   10.2929   31.7571 C.ar      1 UNK         0.0000 
      5 N5         21.7030    9.0460   31.3553 N.ar      1 UNK         0.0000 
      6 C6         20.9397    8.0077   31.7246 C.ar      1 UNK         0.0000 
      7 C7         19.8167    8.1342   32.5272 C.ar      1 UNK         0.0000 
      8 C8         19.4419    9.4023   32.9317 C.ar      1 UNK         0.0000 
      9 N9         18.2880    9.4650   33.7017 N.pl3     1 UNK         0.0000 
     10 C10        20.2000   10.5200   32.5451 C.ar      1 UNK         0.0000 
     11 C11        19.8477   11.8875   32.9079 C.1       1 UNK         0.0000 
     12 N12        19.5764   12.9770   33.1888 N.1       1 UNK         0.0000 
     13 N13        21.4299    6.8386   31.1872 N.am      1 UNK         0.0000 
     14 C14        20.8469    5.6461   31.0336 C.2       1 UNK         0.0000 
     15 O15        19.7112    5.3701   31.4141 O.2       1 UNK         0.0000 
     16 C16        21.6405    4.6099   30.2450 C.3       1 UNK         0.0000 
     17 C17        23.0890    4.4692   30.6919 C.ar      1 UNK         0.0000 
     18 C18        23.4115    3.6311   31.7625 C.ar      1 UNK         0.0000 
     19 C19        24.7308    3.5231   32.1964 C.ar      1 UNK         0.0000 
     20 Cl20       25.1131    2.5196   33.5455 Cl        1 UNK         0.0000 
     21 C21        25.7377    4.2389   31.5498 C.ar      1 UNK         0.0000 
     22 C22        25.4251    5.0710   30.4731 C.ar      1 UNK         0.0000 
     23 C23        24.1019    5.1880   30.0463 C.ar      1 UNK         0.0000 
     24 H24        24.8475   12.3245   29.6656 H         1 UNK         0.0000 
     25 H25        23.2997   13.1565   29.7922 H         1 UNK         0.0000 
     26 H26        24.2763   12.8938   31.2348 H         1 UNK         0.0000 
     27 H27        22.9540   10.6743   29.5648 H         1 UNK         0.0000 
     28 H28        23.9412   10.4115   31.0051 H         1 UNK         0.0000 
     29 H29        19.2327    7.2769   32.8172 H         1 UNK         0.0000 
     30 H30        17.8294    8.6094   34.0005 H         1 UNK         0.0000 
     31 H31        17.8922   10.3658   33.9622 H         1 UNK         0.0000 
     32 H32        22.3541    6.9752   30.8225 H         1 UNK         0.0000 
     33 H33        21.1451    3.6416   30.2910 H         1 UNK         0.0000 
     34 H34        21.5984    4.9434   29.2151 H         1 UNK         0.0000 
     35 H35        22.6442    3.0568   32.2589 H         1 UNK         0.0000 
     36 H36        26.7584    4.1509   31.8923 H         1 UNK         0.0000 
     37 H37        26.2071    5.6291   29.9754 H         1 UNK         0.0000 
     38 H38        23.8712    5.8362   29.2115 H         1 UNK         0.0000 
@<TRIPOS>BOND
     1    1    2 1    
     2    1   24 1    
     3    1   25 1    
     4    1   26 1    
     5    2    3 1    
     6    2   27 1    
     7    2   28 1    
     8    3    4 1    
     9    4   10 ar   
    10    4    5 ar   
    11    5    6 ar   
    12    6    7 ar   
    13    6   13 1    
    14    7    8 ar   
    15    7   29 1    
    16    8    9 1    
    17    8   10 ar   
    18    9   30 1    
    19    9   31 1    
    20   10   11 1    
    21   11   12 3    
    22   13   14 am   BACKBONE|DICT|INTERRES
    23   13   32 1    
    24   14   15 2    
    25   14   16 1    
    26   16   17 1    
    27   16   33 1    
    28   16   34 1    
    29   17   23 ar   
    30   17   18 ar   
    31   18   19 ar   
    32   18   35 1    
    33   19   20 1    
    34   19   21 ar   
    35   21   22 ar   
    36   21   36 1    
    37   22   23 ar   
    38   22   37 1    
    39   23   38 1    
@<TRIPOS>SUBSTRUCTURE
     1 UNK         1 GROUP             0       ****    0 ROOT    
