@<TRIPOS>MOLECULE
18658-1
47   48    1
SMALL
USER_CHARGES


@<TRIPOS>ATOM
      1 O1         24.2852   12.3288   28.3276 O.3       1 UNK         0.0000 
      2 C2         23.5037   12.4810   29.5025 C.3       1 UNK         0.0000 
      3 C3         22.9866   11.1257   30.0090 C.3       1 UNK         0.0000 
      4 O4         22.1131   11.3519   31.1177 O.3       1 UNK         0.0000 
      5 C5         21.3839   10.2942   31.6329 C.ar      1 UNK         0.0000 
      6 N6         21.7293    9.0437   31.2234 N.ar      1 UNK         0.0000 
      7 C7         20.9896    8.0072   31.6469 C.ar      1 UNK         0.0000 
      8 C8         19.9094    8.1489   32.5070 C.ar      1 UNK         0.0000 
      9 C9         19.5594    9.4227   32.9202 C.ar      1 UNK         0.0000 
     10 N10        18.4400    9.5048   33.7395 N.pl3     1 UNK         0.0000 
     11 C11        20.3035   10.5324   32.4890 C.ar      1 UNK         0.0000 
     12 C12        19.9761   11.9037   32.8617 C.1       1 UNK         0.0000 
     13 N13        19.7239   12.9956   33.1512 N.1       1 UNK         0.0000 
     14 N14        21.4466    6.8222   31.1057 N.am      1 UNK         0.0000 
     15 C15        20.8624    5.6231   31.0276 C.2       1 UNK         0.0000 
     16 O16        19.7368    5.3649   31.4500 O.2       1 UNK         0.0000 
     17 C17        21.6464    4.5487   30.2818 C.3       1 UNK         0.0000 
     18 C18        23.0171    4.2597   30.8878 C.ar      1 UNK         0.0000 
     19 C19        24.1155    5.0842   30.5962 C.ar      1 UNK         0.0000 
     20 O20        23.8945    6.1740   29.7723 O.3       1 UNK         0.0000 
     21 C21        24.9287    7.1387   29.5901 C.3       1 UNK         0.0000 
     22 C22        25.3625    4.7657   31.1517 C.ar      1 UNK         0.0000 
     23 C23        25.4998    3.6732   32.0086 C.ar      1 UNK         0.0000 
     24 C24        24.4115    2.8577   32.3080 C.ar      1 UNK         0.0000 
     25 C25        23.1685    3.1576   31.7364 C.ar      1 UNK         0.0000 
     26 O26        24.6403    1.8060   33.1700 O.3       1 UNK         0.0000 
     27 C27        23.7219    0.7155   33.1863 C.3       1 UNK         0.0000 
     28 H28        23.6925   12.1645   27.5705 H         1 UNK         0.0000 
     29 H29        24.1054   12.9602   30.2767 H         1 UNK         0.0000 
     30 H30        22.6668   13.1501   29.2937 H         1 UNK         0.0000 
     31 H31        22.4486   10.6181   29.2048 H         1 UNK         0.0000 
     32 H32        23.8206   10.4854   30.3032 H         1 UNK         0.0000 
     33 H33        19.3382    7.2973   32.8365 H         1 UNK         0.0000 
     34 H34        17.9523    8.6584   34.0161 H         1 UNK         0.0000 
     35 H35        18.0427   10.4109   33.9760 H         1 UNK         0.0000 
     36 H36        22.3576    6.9198   30.6835 H         1 UNK         0.0000 
     37 H37        21.0656    3.6325   30.2173 H         1 UNK         0.0000 
     38 H38        21.7673    4.9118   29.2660 H         1 UNK         0.0000 
     39 H39        25.8009    6.7077   29.0963 H         1 UNK         0.0000 
     40 H40        24.5598    7.9441   28.9547 H         1 UNK         0.0000 
     41 H41        25.2352    7.5868   30.5365 H         1 UNK         0.0000 
     42 H42        26.2360    5.3618   30.9363 H         1 UNK         0.0000 
     43 H43        26.4616    3.4445   32.4445 H         1 UNK         0.0000 
     44 H44        22.3141    2.5340   31.9474 H         1 UNK         0.0000 
     45 H45        24.0963   -0.0558   33.8590 H         1 UNK         0.0000 
     46 H46        22.7347    1.0021   33.5460 H         1 UNK         0.0000 
     47 H47        23.6203    0.2633   32.2001 H         1 UNK         0.0000 
@<TRIPOS>BOND
     1    1    2 1    
     2    1   28 1    
     3    2    3 1    
     4    2   29 1    
     5    2   30 1    
     6    3    4 1    
     7    3   31 1    
     8    3   32 1    
     9    4    5 1    
    10    5   11 ar   
    11    5    6 ar   
    12    6    7 ar   
    13    7    8 ar   
    14    7   14 1    
    15    8    9 ar   
    16    8   33 1    
    17    9   10 1    
    18    9   11 ar   
    19   10   34 1    
    20   10   35 1    
    21   11   12 1    
    22   12   13 3    
    23   14   15 am   BACKBONE|DICT|INTERRES
    24   14   36 1    
    25   15   16 2    
    26   15   17 1    
    27   17   18 1    
    28   17   37 1    
    29   17   38 1    
    30   18   25 ar   
    31   18   19 ar   
    32   19   20 1    
    33   19   22 ar   
    34   20   21 1    
    35   21   39 1    
    36   21   40 1    
    37   21   41 1    
    38   22   23 ar   
    39   22   42 1    
    40   23   24 ar   
    41   23   43 1    
    42   24   25 ar   
    43   24   26 1    
    44   25   44 1    
    45   26   27 1    
    46   27   45 1    
    47   27   46 1    
    48   27   47 1    
@<TRIPOS>SUBSTRUCTURE
     1 UNK         1 GROUP             0       ****    0 ROOT    
