@<TRIPOS>MOLECULE
18638-1
52   53    1
SMALL
USER_CHARGES


@<TRIPOS>ATOM
      1 C1         24.0828   12.3868   30.2428 C.3       1 UNK         0.0000 
      2 C2         23.3511   11.0608   30.4631 C.3       1 UNK         0.0000 
      3 O3         22.2130   11.3224   31.2794 O.3       1 UNK         0.0000 
      4 C4         21.4137   10.2724   31.6978 C.ar      1 UNK         0.0000 
      5 N5         21.7583    9.0214   31.2860 N.ar      1 UNK         0.0000 
      6 C6         20.9833    7.9917   31.6587 C.ar      1 UNK         0.0000 
      7 C7         19.8720    8.1371   32.4777 C.ar      1 UNK         0.0000 
      8 C8         19.5223    9.4096   32.8934 C.ar      1 UNK         0.0000 
      9 N9         18.3826    9.4917   33.6852 N.pl3     1 UNK         0.0000 
     10 C10        20.2930   10.5154   32.4999 C.ar      1 UNK         0.0000 
     11 C11        19.9661   11.8857   32.8768 C.1       1 UNK         0.0000 
     12 N12        19.7139   12.9766   33.1706 N.1       1 UNK         0.0000 
     13 N13        21.4471    6.8094   31.1176 N.am      1 UNK         0.0000 
     14 C14        20.8648    5.6102   31.0302 C.2       1 UNK         0.0000 
     15 O15        19.7384    5.3480   31.4462 O.2       1 UNK         0.0000 
     16 C16        21.6493    4.5406   30.2812 C.3       1 UNK         0.0000 
     17 C17        23.0099    4.2326   30.8981 C.ar      1 UNK         0.0000 
     18 C18        24.1205    5.0418   30.6147 C.ar      1 UNK         0.0000 
     19 O19        23.9162    6.1432   29.8018 O.3       1 UNK         0.0000 
     20 C20        24.9744    7.0761   29.5922 C.3       1 UNK         0.0000 
     21 C21        25.3630    4.6931   31.1582 C.ar      1 UNK         0.0000 
     22 C22        25.4887    3.5794   31.9953 C.ar      1 UNK         0.0000 
     23 S23        27.1113    3.1594   32.6460 S.o2      1 UNK         0.0000 
     24 O24        28.0639    4.2094   32.2494 O.2       1 UNK         0.0000 
     25 O25        26.9781    2.8102   34.0695 O.2       1 UNK         0.0000 
     26 C26        27.5657    1.6315   31.7313 C.3       1 UNK         0.0000 
     27 C27        24.3792    2.7781   32.2959 C.ar      1 UNK         0.0000 
     28 C28        23.1415    3.1205   31.7349 C.ar      1 UNK         0.0000 
     29 O29        24.5589    1.6919   33.1307 O.3       1 UNK         0.0000 
     30 C30        23.5930    0.6441   33.1472 C.3       1 UNK         0.0000 
     31 H31        24.9667   12.2481   29.6211 H         1 UNK         0.0000 
     32 H32        23.4340   13.1077   29.7447 H         1 UNK         0.0000 
     33 H33        24.3990   12.8219   31.1906 H         1 UNK         0.0000 
     34 H34        23.0429   10.6331   29.5065 H         1 UNK         0.0000 
     35 H35        24.0201   10.3469   30.9492 H         1 UNK         0.0000 
     36 H36        19.2773    7.2904   32.7761 H         1 UNK         0.0000 
     37 H37        17.9032    8.6443   33.9735 H         1 UNK         0.0000 
     38 H38        17.9980   10.3977   33.9421 H         1 UNK         0.0000 
     39 H39        22.3581    6.9165   30.6994 H         1 UNK         0.0000 
     40 H40        21.0631    3.6295   30.2004 H         1 UNK         0.0000 
     41 H41        21.7824    4.9132   29.2703 H         1 UNK         0.0000 
     42 H42        24.6154    7.8880   28.9593 H         1 UNK         0.0000 
     43 H43        25.3134    7.5216   30.5284 H         1 UNK         0.0000 
     44 H44        25.8233    6.6177   29.0824 H         1 UNK         0.0000 
     45 H45        26.2396    5.2813   30.9372 H         1 UNK         0.0000 
     46 H46        27.5804    1.8413   30.6637 H         1 UNK         0.0000 
     47 H47        28.5481    1.2980   32.0584 H         1 UNK         0.0000 
     48 H48        26.8259    0.8607   31.9422 H         1 UNK         0.0000 
     49 H49        22.2718    2.5149   31.9348 H         1 UNK         0.0000 
     50 H50        23.4748    0.1971   32.1618 H         1 UNK         0.0000 
     51 H51        22.6191    0.9694   33.5092 H         1 UNK         0.0000 
     52 H52        23.9356   -0.1431   33.8184 H         1 UNK         0.0000 
@<TRIPOS>BOND
     1    1    2 1    
     2    1   31 1    
     3    1   32 1    
     4    1   33 1    
     5    2    3 1    
     6    2   34 1    
     7    2   35 1    
     8    3    4 1    
     9    4   10 ar   
    10    4    5 ar   
    11    5    6 ar   
    12    6    7 ar   
    13    6   13 1    
    14    7    8 ar   
    15    7   36 1    
    16    8    9 1    
    17    8   10 ar   
    18    9   37 1    
    19    9   38 1    
    20   10   11 1    
    21   11   12 3    
    22   13   14 am   BACKBONE|DICT|INTERRES
    23   13   39 1    
    24   14   15 2    
    25   14   16 1    
    26   16   17 1    
    27   16   40 1    
    28   16   41 1    
    29   17   28 ar   
    30   17   18 ar   
    31   18   19 1    
    32   18   21 ar   
    33   19   20 1    
    34   20   42 1    
    35   20   43 1    
    36   20   44 1    
    37   21   22 ar   
    38   21   45 1    
    39   22   23 1    
    40   22   27 ar   
    41   23   24 2    
    42   23   25 2    
    43   23   26 1    
    44   26   46 1    
    45   26   47 1    
    46   26   48 1    
    47   27   28 ar   
    48   27   29 1    
    49   28   49 1    
    50   29   30 1    
    51   30   50 1    
    52   30   51 1    
    53   30   52 1    
@<TRIPOS>SUBSTRUCTURE
     1 UNK         1 GROUP             0       ****    0 ROOT    
