@<TRIPOS>MOLECULE
18660-1
52   53    1
SMALL
USER_CHARGES


@<TRIPOS>ATOM
      1 C1         21.2242   13.7577   29.7743 C.3       1 UNK         0.0000 
      2 S2         22.9858   13.4243   29.4250 S.o2      1 UNK         0.0000 
      3 O3         23.3325   14.1347   28.1853 O.2       1 UNK         0.0000 
      4 O4         23.7515   13.6655   30.6540 O.2       1 UNK         0.0000 
      5 C5         23.0345   11.6250   29.1007 C.3       1 UNK         0.0000 
      6 C6         23.2416   10.8260   30.3896 C.3       1 UNK         0.0000 
      7 O7         22.1374   11.0915   31.2625 O.3       1 UNK         0.0000 
      8 C8         21.3481   10.0698   31.7543 C.ar      1 UNK         0.0000 
      9 N9         21.6928    8.8106   31.3991 N.ar      1 UNK         0.0000 
     10 C10        20.9169    7.7999   31.7865 C.ar      1 UNK         0.0000 
     11 C11        19.7851    7.9631   32.5715 C.ar      1 UNK         0.0000 
     12 C12        19.4339    9.2500   32.9461 C.ar      1 UNK         0.0000 
     13 N13        18.2722    9.3640   33.7009 N.pl3     1 UNK         0.0000 
     14 C14        20.2235   10.3414   32.5432 C.ar      1 UNK         0.0000 
     15 C15        19.9110   11.7214   32.8945 C.1       1 UNK         0.0000 
     16 N16        19.6714   12.8208   33.1675 N.1       1 UNK         0.0000 
     17 N17        21.4154    6.6269   31.2767 N.am      1 UNK         0.0000 
     18 C18        20.7987    5.4740   31.0443 C.2       1 UNK         0.0000 
     19 O19        19.6158    5.2719   31.3028 O.2       1 UNK         0.0000 
     20 C20        21.6200    4.4088   30.3253 C.3       1 UNK         0.0000 
     21 C21        22.9824    4.1291   30.9583 C.ar      1 UNK         0.0000 
     22 C22        24.0821    4.9595   30.6887 C.ar      1 UNK         0.0000 
     23 O23        23.8687    6.0491   29.8635 O.3       1 UNK         0.0000 
     24 C24        24.9419    6.9455   29.5869 C.3       1 UNK         0.0000 
     25 C25        25.3204    4.6479   31.2676 C.ar      1 UNK         0.0000 
     26 C26        25.4495    3.5512   32.1202 C.ar      1 UNK         0.0000 
     27 C27        24.3619    2.7258   32.3925 C.ar      1 UNK         0.0000 
     28 C28        23.1276    3.0227   31.8010 C.ar      1 UNK         0.0000 
     29 O29        24.5822    1.6654   33.2461 O.3       1 UNK         0.0000 
     30 C30        23.6524    0.5847   33.2552 C.3       1 UNK         0.0000 
     31 H31        20.6224   13.4455   28.9242 H         1 UNK         0.0000 
     32 H32        20.9239   13.2060   30.6603 H         1 UNK         0.0000 
     33 H33        21.0976   14.8220   29.9576 H         1 UNK         0.0000 
     34 H34        22.1221   11.3399   28.5828 H         1 UNK         0.0000 
     35 H35        23.8612   11.4529   28.4152 H         1 UNK         0.0000 
     36 H36        23.4140    9.7837   30.1198 H         1 UNK         0.0000 
     37 H37        24.1564   11.1350   30.8975 H         1 UNK         0.0000 
     38 H38        19.1830    7.1215   32.8686 H         1 UNK         0.0000 
     39 H39        17.9080   10.2805   33.9495 H         1 UNK         0.0000 
     40 H40        17.7984    8.5273   34.0307 H         1 UNK         0.0000 
     41 H41        22.3652    6.7216   30.9520 H         1 UNK         0.0000 
     42 H42        21.0528    3.4878   30.2402 H         1 UNK         0.0000 
     43 H43        21.7618    4.7818   29.3166 H         1 UNK         0.0000 
     44 H44        25.7707    6.4417   29.0871 H         1 UNK         0.0000 
     45 H45        24.5889    7.7313   28.9191 H         1 UNK         0.0000 
     46 H46        25.3079    7.4296   30.4933 H         1 UNK         0.0000 
     47 H47        26.1942    5.2498   31.0718 H         1 UNK         0.0000 
     48 H48        26.4048    3.3255   32.5717 H         1 UNK         0.0000 
     49 H49        22.2756    2.3889   31.9880 H         1 UNK         0.0000 
     50 H50        24.0231   -0.2004   33.9140 H         1 UNK         0.0000 
     51 H51        22.6722    0.8804   33.6279 H         1 UNK         0.0000 
     52 H52        23.5373    0.1485   32.2627 H         1 UNK         0.0000 
@<TRIPOS>BOND
     1    1    2 1    
     2    1   31 1    
     3    1   32 1    
     4    1   33 1    
     5    2    3 2    
     6    2    4 2    
     7    2    5 1    
     8    5    6 1    
     9    5   34 1    
    10    5   35 1    
    11    6    7 1    
    12    6   36 1    
    13    6   37 1    
    14    7    8 1    
    15    8   14 ar   
    16    8    9 ar   
    17    9   10 ar   
    18   10   11 ar   
    19   10   17 1    
    20   11   12 ar   
    21   11   38 1    
    22   12   13 1    
    23   12   14 ar   
    24   13   39 1    
    25   13   40 1    
    26   14   15 1    
    27   15   16 3    
    28   17   18 am   BACKBONE|DICT|INTERRES
    29   17   41 1    
    30   18   19 2    
    31   18   20 1    
    32   20   21 1    
    33   20   42 1    
    34   20   43 1    
    35   21   28 ar   
    36   21   22 ar   
    37   22   23 1    
    38   22   25 ar   
    39   23   24 1    
    40   24   44 1    
    41   24   45 1    
    42   24   46 1    
    43   25   26 ar   
    44   25   47 1    
    45   26   27 ar   
    46   26   48 1    
    47   27   28 ar   
    48   27   29 1    
    49   28   49 1    
    50   29   30 1    
    51   30   50 1    
    52   30   51 1    
    53   30   52 1    
@<TRIPOS>SUBSTRUCTURE
     1 UNK         1 GROUP             0       ****    0 ROOT    
