@<TRIPOS>MOLECULE
18624-1
38   39    1
SMALL
USER_CHARGES


@<TRIPOS>ATOM
      1 C1         24.0164   12.2539   30.2762 C.3       1 UNK         0.0000 
      2 C2         23.2908   10.9314   30.5359 C.3       1 UNK         0.0000 
      3 O3         22.1419   11.2134   31.3311 O.3       1 UNK         0.0000 
      4 C4         21.3323   10.1743   31.7566 C.ar      1 UNK         0.0000 
      5 N5         21.6855    8.9139   31.3839 N.ar      1 UNK         0.0000 
      6 C6         20.8979    7.8953   31.7573 C.ar      1 UNK         0.0000 
      7 C7         19.7602    8.0588   32.5320 C.ar      1 UNK         0.0000 
      8 C8         19.4059    9.3393   32.9154 C.ar      1 UNK         0.0000 
      9 N9         18.2480    9.4343   33.6766 N.pl3     1 UNK         0.0000 
     10 C10        20.1940   10.4357   32.5279 C.ar      1 UNK         0.0000 
     11 C11        19.8720   11.8131   32.8833 C.1       1 UNK         0.0000 
     12 N12        19.6248   12.9098   33.1606 N.1       1 UNK         0.0000 
     13 N13        21.3998    6.6892   31.3168 N.am      1 UNK         0.0000 
     14 C14        20.7829    5.5176   31.1304 C.2       1 UNK         0.0000 
     15 O15        19.5708    5.3642   31.2684 O.2       1 UNK         0.0000 
     16 C16        21.6349    4.3090   30.7130 C.3       1 UNK         0.0000 
     17 C17        23.1282    4.5971   30.5483 C.ar      1 UNK         0.0000 
     18 C18        23.5814    5.4159   29.5068 C.ar      1 UNK         0.0000 
     19 C19        24.9398    5.7006   29.3735 C.ar      1 UNK         0.0000 
     20 C20        25.8537    5.1673   30.2817 C.ar      1 UNK         0.0000 
     21 C21        25.4095    4.3457   31.3184 C.ar      1 UNK         0.0000 
     22 C22        24.0502    4.0609   31.4520 C.ar      1 UNK         0.0000 
     23 H23        24.9074   12.0984   29.6688 H         1 UNK         0.0000 
     24 H24        23.3684   12.9520   29.7458 H         1 UNK         0.0000 
     25 H25        24.3206   12.7248   31.2106 H         1 UNK         0.0000 
     26 H26        22.9961   10.4697   29.5909 H         1 UNK         0.0000 
     27 H27        23.9583   10.2381   31.0529 H         1 UNK         0.0000 
     28 H28        19.1613    7.2149   32.8307 H         1 UNK         0.0000 
     29 H29        17.7801    8.5900   33.9930 H         1 UNK         0.0000 
     30 H30        17.8746   10.3449   33.9353 H         1 UNK         0.0000 
     31 H31        22.3839    6.7405   31.1200 H         1 UNK         0.0000 
     32 H32        21.4790    3.5192   31.4477 H         1 UNK         0.0000 
     33 H33        21.2427    3.9300   29.7726 H         1 UNK         0.0000 
     34 H34        22.8769    5.8379   28.8038 H         1 UNK         0.0000 
     35 H35        25.2864    6.3344   28.5687 H         1 UNK         0.0000 
     36 H36        26.9068    5.3922   30.1824 H         1 UNK         0.0000 
     37 H37        26.1194    3.9318   32.0207 H         1 UNK         0.0000 
     38 H38        23.7188    3.4238   32.2602 H         1 UNK         0.0000 
@<TRIPOS>BOND
     1    1    2 1    
     2    1   23 1    
     3    1   24 1    
     4    1   25 1    
     5    2    3 1    
     6    2   26 1    
     7    2   27 1    
     8    3    4 1    
     9    4   10 ar   
    10    4    5 ar   
    11    5    6 ar   
    12    6    7 ar   
    13    6   13 1    
    14    7    8 ar   
    15    7   28 1    
    16    8    9 1    
    17    8   10 ar   
    18    9   29 1    
    19    9   30 1    
    20   10   11 1    
    21   11   12 3    
    22   13   14 am   BACKBONE|DICT|INTERRES
    23   13   31 1    
    24   14   15 2    
    25   14   16 1    
    26   16   17 1    
    27   16   32 1    
    28   16   33 1    
    29   17   22 ar   
    30   17   18 ar   
    31   18   19 ar   
    32   18   34 1    
    33   19   20 ar   
    34   19   35 1    
    35   20   21 ar   
    36   20   36 1    
    37   21   22 ar   
    38   21   37 1    
    39   22   38 1    
@<TRIPOS>SUBSTRUCTURE
     1 UNK         1 GROUP             0       ****    0 ROOT    
