@<TRIPOS>MOLECULE
18625-1
38   39    1
SMALL
USER_CHARGES


@<TRIPOS>ATOM
      1 C1         23.9836   12.4667   30.2867 C.3       1 UNK         0.0000 
      2 C2         23.2737   11.1272   30.4972 C.3       1 UNK         0.0000 
      3 O3         22.1371   11.3623   31.3251 O.3       1 UNK         0.0000 
      4 C4         21.3544   10.2954   31.7327 C.ar      1 UNK         0.0000 
      5 N5         21.7200    9.0555   31.3102 N.ar      1 UNK         0.0000 
      6 C6         20.9619    8.0098   31.6663 C.ar      1 UNK         0.0000 
      7 C7         19.8426    8.1238   32.4782 C.ar      1 UNK         0.0000 
      8 C8         19.4695    9.3867   32.9059 C.ar      1 UNK         0.0000 
      9 N9         18.3212    9.4436   33.6872 N.pl3     1 UNK         0.0000 
     10 C10        20.2252   10.5101   32.5303 C.ar      1 UNK         0.0000 
     11 C11        19.8753   11.8722   32.9144 C.1       1 UNK         0.0000 
     12 N12        19.6057   12.9576   33.2124 N.1       1 UNK         0.0000 
     13 N13        21.4575    6.8521   31.1054 N.am      1 UNK         0.0000 
     14 C14        20.9156    5.6355   31.0009 C.2       1 UNK         0.0000 
     15 O15        19.8099    5.3226   31.4377 O.2       1 UNK         0.0000 
     16 C16        21.7255    4.6155   30.2083 C.3       1 UNK         0.0000 
     17 C17        23.0587    4.2602   30.8639 C.ar      1 UNK         0.0000 
     18 C18        23.1402    3.3559   31.9374 C.ar      1 UNK         0.0000 
     19 Cl19       21.7341    2.5734   32.5724 Cl        1 UNK         0.0000 
     20 C20        24.3761    3.0744   32.5186 C.ar      1 UNK         0.0000 
     21 C21        25.5378    3.6730   32.0318 C.ar      1 UNK         0.0000 
     22 C22        25.4624    4.5663   30.9649 C.ar      1 UNK         0.0000 
     23 C23        24.2283    4.8614   30.3873 C.ar      1 UNK         0.0000 
     24 H24        24.8633   12.3484   29.6549 H         1 UNK         0.0000 
     25 H25        23.3197   13.1844   29.8043 H         1 UNK         0.0000 
     26 H26        24.3036   12.8938   31.2365 H         1 UNK         0.0000 
     27 H27        22.9649   10.7062   29.5378 H         1 UNK         0.0000 
     28 H28        23.9573   10.4175   30.9690 H         1 UNK         0.0000 
     29 H29        19.2603    7.2626   32.7589 H         1 UNK         0.0000 
     30 H30        17.9290   10.3428   33.9568 H         1 UNK         0.0000 
     31 H31        17.8636    8.5866   33.9837 H         1 UNK         0.0000 
     32 H32        22.3528    7.0201   30.6785 H         1 UNK         0.0000 
     33 H33        21.1373    3.7123   30.0604 H         1 UNK         0.0000 
     34 H34        21.8841    5.0365   29.2197 H         1 UNK         0.0000 
     35 H35        24.4287    2.3849   33.3488 H         1 UNK         0.0000 
     36 H36        26.4943    3.4488   32.4838 H         1 UNK         0.0000 
     37 H37        26.3590    5.0424   30.5919 H         1 UNK         0.0000 
     38 H38        24.1838    5.5759   29.5770 H         1 UNK         0.0000 
@<TRIPOS>BOND
     1    1    2 1    
     2    1   24 1    
     3    1   25 1    
     4    1   26 1    
     5    2    3 1    
     6    2   27 1    
     7    2   28 1    
     8    3    4 1    
     9    4   10 ar   
    10    4    5 ar   
    11    5    6 ar   
    12    6    7 ar   
    13    6   13 1    
    14    7    8 ar   
    15    7   29 1    
    16    8    9 1    
    17    8   10 ar   
    18    9   30 1    
    19    9   31 1    
    20   10   11 1    
    21   11   12 3    
    22   13   14 am   BACKBONE|DICT|INTERRES
    23   13   32 1    
    24   14   15 2    
    25   14   16 1    
    26   16   17 1    
    27   16   33 1    
    28   16   34 1    
    29   17   23 ar   
    30   17   18 ar   
    31   18   19 1    
    32   18   20 ar   
    33   20   21 ar   
    34   20   35 1    
    35   21   22 ar   
    36   21   36 1    
    37   22   23 ar   
    38   22   37 1    
    39   23   38 1    
@<TRIPOS>SUBSTRUCTURE
     1 UNK         1 GROUP             0       ****    0 ROOT    
