@<TRIPOS>MOLECULE
18627-1
38   39    1
SMALL
USER_CHARGES


@<TRIPOS>ATOM
      1 C1         24.0455   12.2310   30.2644 C.3       1 UNK         0.0000 
      2 C2         23.3145   10.9118   30.5250 C.3       1 UNK         0.0000 
      3 O3         22.1664   11.2000   31.3187 O.3       1 UNK         0.0000 
      4 C4         21.3513   10.1659   31.7455 C.ar      1 UNK         0.0000 
      5 N5         21.6956    8.9024   31.3722 N.ar      1 UNK         0.0000 
      6 C6         20.9003    7.8904   31.7476 C.ar      1 UNK         0.0000 
      7 C7         19.7671    8.0627   32.5273 C.ar      1 UNK         0.0000 
      8 C8         19.4228    9.3455   32.9112 C.ar      1 UNK         0.0000 
      9 N9         18.2685    9.4486   33.6770 N.pl3     1 UNK         0.0000 
     10 C10        20.2166   10.4359   32.5197 C.ar      1 UNK         0.0000 
     11 C11        19.9034   11.8154   32.8755 C.1       1 UNK         0.0000 
     12 N12        19.6627   12.9133   33.1535 N.1       1 UNK         0.0000 
     13 N13        21.3886    6.6799   31.3021 N.am      1 UNK         0.0000 
     14 C14        20.7526    5.5183   31.1147 C.2       1 UNK         0.0000 
     15 O15        19.5388    5.3838   31.2541 O.2       1 UNK         0.0000 
     16 C16        21.5779    4.2945   30.6927 C.3       1 UNK         0.0000 
     17 C17        23.0905    4.5085   30.6435 C.ar      1 UNK         0.0000 
     18 C18        23.6658    5.3064   29.6460 C.ar      1 UNK         0.0000 
     19 C19        25.0464    5.5098   29.6200 C.ar      1 UNK         0.0000 
     20 C20        25.8561    4.9156   30.5871 C.ar      1 UNK         0.0000 
     21 Cl21       27.5599    5.1731   30.5675 Cl        1 UNK         0.0000 
     22 C22        25.2884    4.1164   31.5778 C.ar      1 UNK         0.0000 
     23 C23        23.9087    3.9120   31.6076 C.ar      1 UNK         0.0000 
     24 H24        24.9364   12.0713   29.6579 H         1 UNK         0.0000 
     25 H25        23.4006   12.9310   29.7325 H         1 UNK         0.0000 
     26 H26        24.3505   12.7019   31.1984 H         1 UNK         0.0000 
     27 H27        23.0186   10.4502   29.5804 H         1 UNK         0.0000 
     28 H28        23.9785   10.2165   31.0438 H         1 UNK         0.0000 
     29 H29        19.1622    7.2240   32.8293 H         1 UNK         0.0000 
     30 H30        17.7921    8.6077   33.9893 H         1 UNK         0.0000 
     31 H31        17.8985   10.3613   33.9326 H         1 UNK         0.0000 
     32 H32        22.3727    6.7236   31.1098 H         1 UNK         0.0000 
     33 H33        21.3384    3.4827   31.3789 H         1 UNK         0.0000 
     34 H34        21.2281    3.9764   29.7145 H         1 UNK         0.0000 
     35 H35        23.0434    5.7716   28.8932 H         1 UNK         0.0000 
     36 H36        25.4959    6.1265   28.8545 H         1 UNK         0.0000 
     37 H37        25.9236    3.6580   32.3215 H         1 UNK         0.0000 
     38 H38        23.4814    3.2862   32.3792 H         1 UNK         0.0000 
@<TRIPOS>BOND
     1    1    2 1    
     2    1   24 1    
     3    1   25 1    
     4    1   26 1    
     5    2    3 1    
     6    2   27 1    
     7    2   28 1    
     8    3    4 1    
     9    4   10 ar   
    10    4    5 ar   
    11    5    6 ar   
    12    6    7 ar   
    13    6   13 1    
    14    7    8 ar   
    15    7   29 1    
    16    8    9 1    
    17    8   10 ar   
    18    9   30 1    
    19    9   31 1    
    20   10   11 1    
    21   11   12 3    
    22   13   14 am   BACKBONE|DICT|INTERRES
    23   13   32 1    
    24   14   15 2    
    25   14   16 1    
    26   16   17 1    
    27   16   33 1    
    28   16   34 1    
    29   17   23 ar   
    30   17   18 ar   
    31   18   19 ar   
    32   18   35 1    
    33   19   20 ar   
    34   19   36 1    
    35   20   21 1    
    36   20   22 ar   
    37   22   23 ar   
    38   22   37 1    
    39   23   38 1    
@<TRIPOS>SUBSTRUCTURE
     1 UNK         1 GROUP             0       ****    0 ROOT    
