@<TRIPOS>MOLECULE
17124-1
46   47    1
SMALL
USER_CHARGES


@<TRIPOS>ATOM
      1 C1         24.0816   12.3916   30.2423 C.3       1 UNK         0.0000 
      2 C2         23.3500   11.0657   30.4628 C.3       1 UNK         0.0000 
      3 O3         22.2121   11.3274   31.2794 O.3       1 UNK         0.0000 
      4 C4         21.4127   10.2773   31.6976 C.ar      1 UNK         0.0000 
      5 N5         21.7567    9.0266   31.2850 N.ar      1 UNK         0.0000 
      6 C6         20.9811    7.9971   31.6572 C.ar      1 UNK         0.0000 
      7 C7         19.8706    8.1421   32.4769 C.ar      1 UNK         0.0000 
      8 C8         19.5217    9.4143   32.8937 C.ar      1 UNK         0.0000 
      9 N9         18.3827    9.4958   33.6863 N.pl3     1 UNK         0.0000 
     10 C10        20.2923   10.5202   32.5003 C.ar      1 UNK         0.0000 
     11 C11        19.9657   11.8905   32.8774 C.1       1 UNK         0.0000 
     12 N12        19.7135   12.9814   33.1712 N.1       1 UNK         0.0000 
     13 N13        21.4435    6.8153   31.1146 N.am      1 UNK         0.0000 
     14 C14        20.8639    5.6146   31.0308 C.2       1 UNK         0.0000 
     15 O15        19.7396    5.3500   31.4512 O.2       1 UNK         0.0000 
     16 C16        21.6499    4.5466   30.2798 C.3       1 UNK         0.0000 
     17 C17        23.0247    4.2587   30.8770 C.ar      1 UNK         0.0000 
     18 C18        24.1218    5.0797   30.5737 C.ar      1 UNK         0.0000 
     19 O19        23.8940    6.1755   29.7600 O.3       1 UNK         0.0000 
     20 C20        24.9260    7.1419   29.5741 C.3       1 UNK         0.0000 
     21 C21        25.3756    4.7488   31.1028 C.ar      1 UNK         0.0000 
     22 C22        25.5283    3.6468   31.9432 C.ar      1 UNK         0.0000 
     23 Br23       27.2648    3.2511   32.6230 Br        1 UNK         0.0000 
     24 C24        24.4329    2.8399   32.2701 C.ar      1 UNK         0.0000 
     25 C25        23.1819    3.1565   31.7231 C.ar      1 UNK         0.0000 
     26 O26        24.6457    1.7801   33.1306 O.3       1 UNK         0.0000 
     27 C27        23.7084    0.7066   33.1601 C.3       1 UNK         0.0000 
     28 H28        24.9658   12.2529   29.6210 H         1 UNK         0.0000 
     29 H29        23.4330   13.1123   29.7438 H         1 UNK         0.0000 
     30 H30        24.3974   12.8270   31.1900 H         1 UNK         0.0000 
     31 H31        23.0415   10.6380   29.5063 H         1 UNK         0.0000 
     32 H32        24.0190   10.3518   30.9488 H         1 UNK         0.0000 
     33 H33        19.2757    7.2952   32.7747 H         1 UNK         0.0000 
     34 H34        17.9031    8.6482   33.9732 H         1 UNK         0.0000 
     35 H35        17.9977   10.4016   33.9433 H         1 UNK         0.0000 
     36 H36        22.3516    6.9230   30.6906 H         1 UNK         0.0000 
     37 H37        21.0717    3.6287   30.2152 H         1 UNK         0.0000 
     38 H38        21.7630    4.9135   29.2646 H         1 UNK         0.0000 
     39 H39        24.5476    7.9548   28.9541 H         1 UNK         0.0000 
     40 H40        25.2471    7.5788   30.5210 H         1 UNK         0.0000 
     41 H41        25.7903    6.7169   29.0616 H         1 UNK         0.0000 
     42 H42        26.2494    5.3384   30.8749 H         1 UNK         0.0000 
     43 H43        22.3237    2.5419   31.9463 H         1 UNK         0.0000 
     44 H44        24.0776   -0.0691   33.8306 H         1 UNK         0.0000 
     45 H45        22.7306    1.0102   33.5310 H         1 UNK         0.0000 
     46 H46        23.5885    0.2529   32.1771 H         1 UNK         0.0000 
@<TRIPOS>BOND
     1    1    2 1    
     2    1   28 1    
     3    1   29 1    
     4    1   30 1    
     5    2    3 1    
     6    2   31 1    
     7    2   32 1    
     8    3    4 1    
     9    4   10 ar   
    10    4    5 ar   
    11    5    6 ar   
    12    6    7 ar   
    13    6   13 1    
    14    7    8 ar   
    15    7   33 1    
    16    8    9 1    
    17    8   10 ar   
    18    9   34 1    
    19    9   35 1    
    20   10   11 1    
    21   11   12 3    
    22   13   14 am   BACKBONE|DICT|INTERRES
    23   13   36 1    
    24   14   15 2    
    25   14   16 1    
    26   16   17 1    
    27   16   37 1    
    28   16   38 1    
    29   17   25 ar   
    30   17   18 ar   
    31   18   19 1    
    32   18   21 ar   
    33   19   20 1    
    34   20   39 1    
    35   20   40 1    
    36   20   41 1    
    37   21   22 ar   
    38   21   42 1    
    39   22   23 1    
    40   22   24 ar   
    41   24   25 ar   
    42   24   26 1    
    43   25   43 1    
    44   26   27 1    
    45   27   44 1    
    46   27   45 1    
    47   27   46 1    
@<TRIPOS>SUBSTRUCTURE
     1 UNK         1 GROUP             0       ****    0 ROOT    
