@<TRIPOS>MOLECULE
18637-1
53   54    1
SMALL
USER_CHARGES


@<TRIPOS>ATOM
      1 C1         24.0679   12.3974   30.2299 C.3       1 UNK         0.0000 
      2 C2         23.3159   11.0783   30.4227 C.3       1 UNK         0.0000 
      3 O3         22.2074   11.3318   31.2810 O.3       1 UNK         0.0000 
      4 C4         21.4078   10.2815   31.6977 C.ar      1 UNK         0.0000 
      5 N5         21.7477    9.0318   31.2791 N.ar      1 UNK         0.0000 
      6 C6         20.9736    8.0017   31.6536 C.ar      1 UNK         0.0000 
      7 C7         19.8665    8.1461   32.4779 C.ar      1 UNK         0.0000 
      8 C8         19.5200    9.4177   32.8981 C.ar      1 UNK         0.0000 
      9 N9         18.3829    9.4988   33.6931 N.pl3     1 UNK         0.0000 
     10 C10        20.2909   10.5235   32.5051 C.ar      1 UNK         0.0000 
     11 C11        19.9670   11.8935   32.8853 C.1       1 UNK         0.0000 
     12 N12        19.7174   12.9843   33.1812 N.1       1 UNK         0.0000 
     13 N13        21.4331    6.8194   31.1098 N.am      1 UNK         0.0000 
     14 C14        20.8527    5.6189   31.0281 C.2       1 UNK         0.0000 
     15 O15        19.7272    5.3573   31.4476 O.2       1 UNK         0.0000 
     16 C16        21.6390    4.5479   30.2799 C.3       1 UNK         0.0000 
     17 C17        23.0290    4.2861   30.8549 C.ar      1 UNK         0.0000 
     18 C18        24.1071    5.1197   30.5266 C.ar      1 UNK         0.0000 
     19 O19        23.8494    6.2028   29.7043 O.3       1 UNK         0.0000 
     20 C20        24.8536    7.1989   29.5184 C.3       1 UNK         0.0000 
     21 C21        25.3718    4.8226   31.0461 C.ar      1 UNK         0.0000 
     22 C22        25.5645    3.7381   31.9139 C.ar      1 UNK         0.0000 
     23 C23        24.4775    2.9179   32.2550 C.ar      1 UNK         0.0000 
     24 C24        23.2164    3.1999   31.7130 C.ar      1 UNK         0.0000 
     25 O25        24.7079    1.8722   33.1347 O.3       1 UNK         0.0000 
     26 C26        23.7954    0.7759   33.1653 C.3       1 UNK         0.0000 
     27 N27        26.8105    3.4129   32.4986 N.am      1 UNK         0.0000 
     28 C28        28.0304    3.9580   32.3626 C.2       1 UNK         0.0000 
     29 O29        28.3090    4.8809   31.6038 O.2       1 UNK         0.0000 
     30 C30        29.1268    3.3864   33.2444 C.3       1 UNK         0.0000 
     31 H31        24.9126   12.2714   29.5531 H         1 UNK         0.0000 
     32 H32        23.4120   13.1593   29.8075 H         1 UNK         0.0000 
     33 H33        24.4475   12.7735   31.1798 H         1 UNK         0.0000 
     34 H34        22.9679   10.6939   29.4613 H         1 UNK         0.0000 
     35 H35        23.9861   10.3339   30.8590 H         1 UNK         0.0000 
     36 H36        19.2723    7.2992   32.7769 H         1 UNK         0.0000 
     37 H37        17.9982   10.4045   33.9508 H         1 UNK         0.0000 
     38 H38        17.9022    8.6511   33.9777 H         1 UNK         0.0000 
     39 H39        22.3411    6.9232   30.6839 H         1 UNK         0.0000 
     40 H40        21.0716    3.6218   30.2389 H         1 UNK         0.0000 
     41 H41        21.7296    4.9031   29.2587 H         1 UNK         0.0000 
     42 H42        25.1766    7.6318   30.4670 H         1 UNK         0.0000 
     43 H43        25.7221    6.8023   28.9901 H         1 UNK         0.0000 
     44 H44        24.4470    8.0095   28.9134 H         1 UNK         0.0000 
     45 H45        26.2052    5.4494   30.7818 H         1 UNK         0.0000 
     46 H46        22.3705    2.5750   31.9549 H         1 UNK         0.0000 
     47 H47        24.1826    0.0083   33.8350 H         1 UNK         0.0000 
     48 H48        22.8116    1.0576   33.5378 H         1 UNK         0.0000 
     49 H49        23.6827    0.3201   32.1822 H         1 UNK         0.0000 
     50 H50        26.7329    2.6375   33.1392 H         1 UNK         0.0000 
     51 H51        28.7666    2.6002   33.9071 H         1 UNK         0.0000 
     52 H52        29.9206    2.9779   32.6211 H         1 UNK         0.0000 
     53 H53        29.5482    4.1842   33.8561 H         1 UNK         0.0000 
@<TRIPOS>BOND
     1    1    2 1    
     2    1   31 1    
     3    1   32 1    
     4    1   33 1    
     5    2    3 1    
     6    2   34 1    
     7    2   35 1    
     8    3    4 1    
     9    4   10 ar   
    10    4    5 ar   
    11    5    6 ar   
    12    6    7 ar   
    13    6   13 1    
    14    7    8 ar   
    15    7   36 1    
    16    8    9 1    
    17    8   10 ar   
    18    9   37 1    
    19    9   38 1    
    20   10   11 1    
    21   11   12 3    
    22   13   14 am   BACKBONE|DICT|INTERRES
    23   13   39 1    
    24   14   15 2    
    25   14   16 1    
    26   16   17 1    
    27   16   40 1    
    28   16   41 1    
    29   17   24 ar   
    30   17   18 ar   
    31   18   19 1    
    32   18   21 ar   
    33   19   20 1    
    34   20   42 1    
    35   20   43 1    
    36   20   44 1    
    37   21   22 ar   
    38   21   45 1    
    39   22   23 ar   
    40   22   27 1    
    41   23   24 ar   
    42   23   25 1    
    43   24   46 1    
    44   25   26 1    
    45   26   47 1    
    46   26   48 1    
    47   26   49 1    
    48   27   28 am   BACKBONE|DICT|INTERRES
    49   27   50 1    
    50   28   29 2    
    51   28   30 1    
    52   30   51 1    
    53   30   52 1    
    54   30   53 1    
@<TRIPOS>SUBSTRUCTURE
     1 UNK         1 GROUP             0       ****    0 ROOT    
