@<TRIPOS>MOLECULE
18636-1
38   39    1
SMALL
USER_CHARGES


@<TRIPOS>ATOM
      1 C1         23.9795   12.4589   30.2880 C.3       1 UNK         0.0000 
      2 C2         23.2747   11.1170   30.5005 C.3       1 UNK         0.0000 
      3 O3         22.1368   11.3490   31.3273 O.3       1 UNK         0.0000 
      4 C4         21.3560   10.2807   31.7346 C.ar      1 UNK         0.0000 
      5 N5         21.7259    9.0407   31.3145 N.ar      1 UNK         0.0000 
      6 C6         20.9683    7.9946   31.6702 C.ar      1 UNK         0.0000 
      7 C7         19.8451    8.1072   32.4773 C.ar      1 UNK         0.0000 
      8 C8         19.4687    9.3702   32.9032 C.ar      1 UNK         0.0000 
      9 N9         18.3178    9.4274   33.6812 N.pl3     1 UNK         0.0000 
     10 C10        20.2247   10.4942   32.5296 C.ar      1 UNK         0.0000 
     11 C11        19.8737   11.8560   32.9146 C.1       1 UNK         0.0000 
     12 N12        19.6036   12.9410   33.2135 N.1       1 UNK         0.0000 
     13 N13        21.4728    6.8392   31.1131 N.am      1 UNK         0.0000 
     14 C14        20.9423    5.6177   31.0115 C.2       1 UNK         0.0000 
     15 O15        19.8423    5.2962   31.4542 O.2       1 UNK         0.0000 
     16 C16        21.7561    4.6026   30.2160 C.3       1 UNK         0.0000 
     17 C17        23.0783    4.2283   30.8823 C.ar      1 UNK         0.0000 
     18 C18        23.1375    3.3173   31.9518 C.ar      1 UNK         0.0000 
     19 Br19       21.5740    2.4705   32.6412 Br        1 UNK         0.0000 
     20 C20        24.3634    3.0176   32.5456 C.ar      1 UNK         0.0000 
     21 C21        25.5365    3.6080   32.0767 C.ar      1 UNK         0.0000 
     22 C22        25.4840    4.5100   31.0173 C.ar      1 UNK         0.0000 
     23 Br23       27.0825    5.3242   30.3860 Br        1 UNK         0.0000 
     24 C24        24.2614    4.8204   30.4251 C.ar      1 UNK         0.0000 
     25 H25        24.8608   12.3428   29.6579 H         1 UNK         0.0000 
     26 H26        23.3134   13.1725   29.8027 H         1 UNK         0.0000 
     27 H27        24.2960   12.8898   31.2373 H         1 UNK         0.0000 
     28 H28        22.9681   10.6932   29.5416 H         1 UNK         0.0000 
     29 H29        23.9606   10.4107   30.9741 H         1 UNK         0.0000 
     30 H30        19.2630    7.2454   32.7565 H         1 UNK         0.0000 
     31 H31        17.8620    8.5711   33.9829 H         1 UNK         0.0000 
     32 H32        17.9267   10.3270   33.9514 H         1 UNK         0.0000 
     33 H33        22.3648    7.0193   30.6863 H         1 UNK         0.0000 
     34 H34        21.1607    3.7065   30.0526 H         1 UNK         0.0000 
     35 H35        21.9267    5.0299   29.2321 H         1 UNK         0.0000 
     36 H36        24.3992    2.3224   33.3727 H         1 UNK         0.0000 
     37 H37        26.4874    3.3749   32.5341 H         1 UNK         0.0000 
     38 H38        24.2431    5.5409   29.6199 H         1 UNK         0.0000 
@<TRIPOS>BOND
     1    1    2 1    
     2    1   25 1    
     3    1   26 1    
     4    1   27 1    
     5    2    3 1    
     6    2   28 1    
     7    2   29 1    
     8    3    4 1    
     9    4   10 ar   
    10    4    5 ar   
    11    5    6 ar   
    12    6    7 ar   
    13    6   13 1    
    14    7    8 ar   
    15    7   30 1    
    16    8    9 1    
    17    8   10 ar   
    18    9   31 1    
    19    9   32 1    
    20   10   11 1    
    21   11   12 3    
    22   13   14 am   BACKBONE|DICT|INTERRES
    23   13   33 1    
    24   14   15 2    
    25   14   16 1    
    26   16   17 1    
    27   16   34 1    
    28   16   35 1    
    29   17   24 ar   
    30   17   18 ar   
    31   18   19 1    
    32   18   20 ar   
    33   20   21 ar   
    34   20   36 1    
    35   21   22 ar   
    36   21   37 1    
    37   22   23 1    
    38   22   24 ar   
    39   24   38 1    
@<TRIPOS>SUBSTRUCTURE
     1 UNK         1 GROUP             0       ****    0 ROOT    
