@<TRIPOS>MOLECULE
18634-1
46   47    1
SMALL
USER_CHARGES


@<TRIPOS>ATOM
      1 C1         24.0733   12.4028   30.2323 C.3       1 UNK         0.0000 
      2 C2         23.3271   11.0818   30.4341 C.3       1 UNK         0.0000 
      3 O3         22.2086   11.3387   31.2785 O.3       1 UNK         0.0000 
      4 C4         21.4076   10.2889   31.6938 C.ar      1 UNK         0.0000 
      5 N5         21.7457    9.0394   31.2730 N.ar      1 UNK         0.0000 
      6 C6         20.9690    8.0101   31.6444 C.ar      1 UNK         0.0000 
      7 C7         19.8628    8.1544   32.4699 C.ar      1 UNK         0.0000 
      8 C8         19.5194    9.4254   32.8937 C.ar      1 UNK         0.0000 
      9 N9         18.3843    9.5057   33.6914 N.pl3     1 UNK         0.0000 
     10 C10        20.2911   10.5310   32.5018 C.ar      1 UNK         0.0000 
     11 C11        19.9686   11.9007   32.8839 C.1       1 UNK         0.0000 
     12 N12        19.7198   12.9914   33.1811 N.1       1 UNK         0.0000 
     13 N13        21.4264    6.8283   31.0989 N.am      1 UNK         0.0000 
     14 C14        20.8492    5.6257   31.0244 C.2       1 UNK         0.0000 
     15 O15        19.7218    5.3642   31.4396 O.2       1 UNK         0.0000 
     16 C16        21.6453    4.5492   30.2959 C.3       1 UNK         0.0000 
     17 C17        23.0487    4.3416   30.8592 C.ar      1 UNK         0.0000 
     18 C18        24.1093    5.1752   30.4706 C.ar      1 UNK         0.0000 
     19 O19        23.8251    6.2111   29.5994 O.3       1 UNK         0.0000 
     20 C20        24.7824    7.2540   29.4258 C.3       1 UNK         0.0000 
     21 C21        25.3879    4.9247   30.9874 C.ar      1 UNK         0.0000 
     22 C22        25.5914    3.9088   31.9220 C.ar      1 UNK         0.0000 
     23 C23        24.5221    3.1087   32.3472 C.ar      1 UNK         0.0000 
     24 C24        23.2656    3.3183   31.7864 C.ar      1 UNK         0.0000 
     25 O25        24.6165    2.1143   33.2977 O.3       1 UNK         0.0000 
     26 C26        25.8225    1.9829   34.0425 C.3       1 UNK         0.0000 
     27 H27        24.9321   12.2709   29.5744 H         1 UNK         0.0000 
     28 H28        23.4201   13.1517   29.7829 H         1 UNK         0.0000 
     29 H29        24.4313   12.7993   31.1825 H         1 UNK         0.0000 
     30 H30        22.9923   10.6829   29.4737 H         1 UNK         0.0000 
     31 H31        23.9965   10.3468   30.8876 H         1 UNK         0.0000 
     32 H32        19.2675    7.3077   32.7672 H         1 UNK         0.0000 
     33 H33        17.9995   10.4112   33.9502 H         1 UNK         0.0000 
     34 H34        17.9030    8.6579   33.9746 H         1 UNK         0.0000 
     35 H35        22.3340    6.9317   30.6726 H         1 UNK         0.0000 
     36 H36        21.0986    3.6093   30.2959 H         1 UNK         0.0000 
     37 H37        21.7112    4.8755   29.2640 H         1 UNK         0.0000 
     38 H38        25.6789    6.8955   28.9178 H         1 UNK         0.0000 
     39 H39        24.3494    8.0402   28.8073 H         1 UNK         0.0000 
     40 H40        25.0654    7.7073   30.3780 H         1 UNK         0.0000 
     41 H41        26.2335    5.5260   30.6895 H         1 UNK         0.0000 
     42 H42        26.5850    3.7612   32.3164 H         1 UNK         0.0000 
     43 H43        22.4552    2.6724   32.0911 H         1 UNK         0.0000 
     44 H44        26.6593    1.6972   33.4036 H         1 UNK         0.0000 
     45 H45        26.0724    2.9044   34.5706 H         1 UNK         0.0000 
     46 H46        25.6996    1.2001   34.7908 H         1 UNK         0.0000 
@<TRIPOS>BOND
     1    1    2 1    
     2    1   27 1    
     3    1   28 1    
     4    1   29 1    
     5    2    3 1    
     6    2   30 1    
     7    2   31 1    
     8    3    4 1    
     9    4   10 ar   
    10    4    5 ar   
    11    5    6 ar   
    12    6    7 ar   
    13    6   13 1    
    14    7    8 ar   
    15    7   32 1    
    16    8    9 1    
    17    8   10 ar   
    18    9   33 1    
    19    9   34 1    
    20   10   11 1    
    21   11   12 3    
    22   13   14 am   BACKBONE|DICT|INTERRES
    23   13   35 1    
    24   14   15 2    
    25   14   16 1    
    26   16   17 1    
    27   16   36 1    
    28   16   37 1    
    29   17   24 ar   
    30   17   18 ar   
    31   18   19 1    
    32   18   21 ar   
    33   19   20 1    
    34   20   38 1    
    35   20   39 1    
    36   20   40 1    
    37   21   22 ar   
    38   21   41 1    
    39   22   23 ar   
    40   22   42 1    
    41   23   24 ar   
    42   23   25 1    
    43   24   43 1    
    44   25   26 1    
    45   26   44 1    
    46   26   45 1    
    47   26   46 1    
@<TRIPOS>SUBSTRUCTURE
     1 UNK         1 GROUP             0       ****    0 ROOT    
