@<TRIPOS>MOLECULE
18652-1
55   56    1
SMALL
USER_CHARGES


@<TRIPOS>ATOM
      1 C1         24.4145   10.2466   30.7179 C.3       1 UNK         0.0000 
      2 C2         23.2191   11.0461   30.1836 C.3       1 UNK         0.0000 
      3 C3         22.7154   10.5298   28.8282 C.3       1 UNK         0.0000 
      4 O4         22.1815   11.2380   31.1572 O.3       1 UNK         0.0000 
      5 C5         21.4027   10.2023   31.6505 C.ar      1 UNK         0.0000 
      6 N6         21.7305    8.9413   31.2769 N.ar      1 UNK         0.0000 
      7 C7         20.9695    7.9245   31.6884 C.ar      1 UNK         0.0000 
      8 C8         19.8692    8.0881   32.5165 C.ar      1 UNK         0.0000 
      9 C9         19.5323    9.3739   32.9065 C.ar      1 UNK         0.0000 
     10 N10        18.4017    9.4816   33.7079 N.pl3     1 UNK         0.0000 
     11 C11        20.3042   10.4681   32.4772 C.ar      1 UNK         0.0000 
     12 C12        19.9961   11.8471   32.8385 C.1       1 UNK         0.0000 
     13 N13        19.7584   12.9445   33.1218 N.1       1 UNK         0.0000 
     14 N14        21.4458    6.7432   31.1644 N.am      1 UNK         0.0000 
     15 C15        20.8524    5.5564   31.0443 C.2       1 UNK         0.0000 
     16 O16        19.7091    5.3135   31.4219 O.2       1 UNK         0.0000 
     17 C17        21.6443    4.4872   30.3016 C.3       1 UNK         0.0000 
     18 C18        22.9984    4.1711   30.9304 C.ar      1 UNK         0.0000 
     19 C19        24.1219    4.9619   30.6449 C.ar      1 UNK         0.0000 
     20 O20        23.9394    6.0555   29.8171 O.3       1 UNK         0.0000 
     21 C21        25.0655    6.8325   29.4151 C.3       1 UNK         0.0000 
     22 C22        25.3547    4.6081   31.2081 C.ar      1 UNK         0.0000 
     23 C23        25.4606    3.5028   32.0584 C.ar      1 UNK         0.0000 
     24 S24        27.0696    3.0792   32.7393 S.o2      1 UNK         0.0000 
     25 O25        26.9129    2.7675   34.1691 O.2       1 UNK         0.0000 
     26 O26        28.0400    4.1078   32.3298 O.2       1 UNK         0.0000 
     27 C27        27.5188    1.5242   31.8684 C.3       1 UNK         0.0000 
     28 C28        24.3410    2.7135   32.3514 C.ar      1 UNK         0.0000 
     29 C29        23.1128    3.0637   31.7753 C.ar      1 UNK         0.0000 
     30 O30        24.5003    1.6315   33.1956 O.3       1 UNK         0.0000 
     31 C31        23.5378    0.5806   33.1826 C.3       1 UNK         0.0000 
     32 H32        24.7415   10.6621   31.6655 H         1 UNK         0.0000 
     33 H33        24.1782    9.1987   30.8859 H         1 UNK         0.0000 
     34 H34        25.2497   10.2777   30.0192 H         1 UNK         0.0000 
     35 H35        23.5910   12.0560   30.0010 H         1 UNK         0.0000 
     36 H36        21.9551   11.1992   28.4337 H         1 UNK         0.0000 
     37 H37        23.5254   10.4948   28.1009 H         1 UNK         0.0000 
     38 H38        22.2876    9.5305   28.8821 H         1 UNK         0.0000 
     39 H39        19.2798    7.2464   32.8395 H         1 UNK         0.0000 
     40 H40        17.9105    8.6432   34.0020 H         1 UNK         0.0000 
     41 H41        18.0224   10.3951   33.9434 H         1 UNK         0.0000 
     42 H42        22.3664    6.8521   30.7686 H         1 UNK         0.0000 
     43 H43        21.0572    3.5783   30.2104 H         1 UNK         0.0000 
     44 H44        21.7884    4.8643   29.2940 H         1 UNK         0.0000 
     45 H45        25.7830    6.2359   28.8495 H         1 UNK         0.0000 
     46 H46        24.7303    7.6423   28.7665 H         1 UNK         0.0000 
     47 H47        25.5715    7.2882   30.2675 H         1 UNK         0.0000 
     48 H48        26.2391    5.1874   30.9959 H         1 UNK         0.0000 
     49 H49        27.5468    1.7068   30.7961 H         1 UNK         0.0000 
     50 H50        28.4945    1.1899   32.2143 H         1 UNK         0.0000 
     51 H51        26.7698    0.7657   32.0904 H         1 UNK         0.0000 
     52 H52        22.2363    2.4667   31.9693 H         1 UNK         0.0000 
     53 H53        22.5553    0.9010   33.5259 H         1 UNK         0.0000 
     54 H54        23.4436    0.1422   32.1903 H         1 UNK         0.0000 
     55 H55        23.8677   -0.2111   33.8548 H         1 UNK         0.0000 
@<TRIPOS>BOND
     1    1    2 1    
     2    1   32 1    
     3    1   33 1    
     4    1   34 1    
     5    2    3 1    
     6    2    4 1    
     7    2   35 1    
     8    3   36 1    
     9    3   37 1    
    10    3   38 1    
    11    4    5 1    
    12    5   11 ar   
    13    5    6 ar   
    14    6    7 ar   
    15    7    8 ar   
    16    7   14 1    
    17    8    9 ar   
    18    8   39 1    
    19    9   10 1    
    20    9   11 ar   
    21   10   40 1    
    22   10   41 1    
    23   11   12 1    
    24   12   13 3    
    25   14   15 am   BACKBONE|DICT|INTERRES
    26   14   42 1    
    27   15   16 2    
    28   15   17 1    
    29   17   18 1    
    30   17   43 1    
    31   17   44 1    
    32   18   29 ar   
    33   18   19 ar   
    34   19   20 1    
    35   19   22 ar   
    36   20   21 1    
    37   21   45 1    
    38   21   46 1    
    39   21   47 1    
    40   22   23 ar   
    41   22   48 1    
    42   23   24 1    
    43   23   28 ar   
    44   24   25 2    
    45   24   26 2    
    46   24   27 1    
    47   27   49 1    
    48   27   50 1    
    49   27   51 1    
    50   28   29 ar   
    51   28   30 1    
    52   29   52 1    
    53   30   31 1    
    54   31   53 1    
    55   31   54 1    
    56   31   55 1    
@<TRIPOS>SUBSTRUCTURE
     1 UNK         1 GROUP             0       ****    0 ROOT    
