@<TRIPOS>MOLECULE
18659-1
50   51    1
SMALL
USER_CHARGES


@<TRIPOS>ATOM
      1 C1         25.3050   12.1344   28.3533 C.3       1 UNK         0.0000 
      2 O2         25.3255   12.3475   29.7610 O.3       1 UNK         0.0000 
      3 C3         24.0339   12.4868   30.3516 C.3       1 UNK         0.0000 
      4 C4         23.3142   11.1388   30.5400 C.3       1 UNK         0.0000 
      5 O5         22.1418   11.3640   31.3238 O.3       1 UNK         0.0000 
      6 C6         21.3619   10.2949   31.7280 C.ar      1 UNK         0.0000 
      7 N7         21.7291    9.0548   31.3049 N.ar      1 UNK         0.0000 
      8 C8         20.9668    8.0091   31.6649 C.ar      1 UNK         0.0000 
      9 C9         19.8501    8.1315   32.4812 C.ar      1 UNK         0.0000 
     10 C10        19.4780    9.3944   32.9057 C.ar      1 UNK         0.0000 
     11 N11        18.3316    9.4546   33.6892 N.pl3     1 UNK         0.0000 
     12 C12        20.2337   10.5143   32.5251 C.ar      1 UNK         0.0000 
     13 C13        19.8862   11.8780   32.9066 C.1       1 UNK         0.0000 
     14 N14        19.6195   12.9648   33.2019 N.1       1 UNK         0.0000 
     15 N15        21.4412    6.8348   31.1127 N.am      1 UNK         0.0000 
     16 C16        20.8679    5.6312   31.0118 C.2       1 UNK         0.0000 
     17 O17        19.7432    5.3541   31.4246 O.2       1 UNK         0.0000 
     18 C18        21.6641    4.5751   30.2539 C.3       1 UNK         0.0000 
     19 C19        23.0297    4.2834   30.8691 C.ar      1 UNK         0.0000 
     20 C20        24.1299    5.1089   30.5871 C.ar      1 UNK         0.0000 
     21 O21        23.9130    6.2046   29.7697 O.3       1 UNK         0.0000 
     22 C22        24.9454    7.1747   29.6060 C.3       1 UNK         0.0000 
     23 C23        25.3741    4.7857   31.1456 C.ar      1 UNK         0.0000 
     24 C24        25.5056    3.6911   32.0008 C.ar      1 UNK         0.0000 
     25 C25        24.4142    2.8780   32.2954 C.ar      1 UNK         0.0000 
     26 C26        23.1745    3.1802   31.7177 C.ar      1 UNK         0.0000 
     27 O27        24.6372    1.8269   33.1598 O.3       1 UNK         0.0000 
     28 C28        23.7198    0.7356   33.1705 C.3       1 UNK         0.0000 
     29 H29        26.3276   12.0663   27.9821 H         1 UNK         0.0000 
     30 H30        24.7968   11.2069   28.0860 H         1 UNK         0.0000 
     31 H31        24.8188   12.9601   27.8307 H         1 UNK         0.0000 
     32 H32        24.1841   12.9412   31.3310 H         1 UNK         0.0000 
     33 H33        23.4112   13.1869   29.7908 H         1 UNK         0.0000 
     34 H34        23.0447   10.7045   29.5760 H         1 UNK         0.0000 
     35 H35        23.9826   10.4389   31.0456 H         1 UNK         0.0000 
     36 H36        19.2656    7.2744   32.7693 H         1 UNK         0.0000 
     37 H37        17.8696    8.5990   33.9826 H         1 UNK         0.0000 
     38 H38        17.9384   10.3545   33.9550 H         1 UNK         0.0000 
     39 H39        22.3546    6.9473   30.7003 H         1 UNK         0.0000 
     40 H40        21.0888    3.6569   30.1676 H         1 UNK         0.0000 
     41 H41        21.7922    4.9565   29.2453 H         1 UNK         0.0000 
     42 H42        25.8243    6.7515   29.1175 H         1 UNK         0.0000 
     43 H43        25.2403    7.6161   30.5591 H         1 UNK         0.0000 
     44 H44        24.5798    7.9840   28.9737 H         1 UNK         0.0000 
     45 H45        26.2495    5.3806   30.9352 H         1 UNK         0.0000 
     46 H46        26.4650    3.4600   32.4406 H         1 UNK         0.0000 
     47 H47        22.3175    2.5586   31.9244 H         1 UNK         0.0000 
     48 H48        24.0868   -0.0315   33.8520 H         1 UNK         0.0000 
     49 H49        22.7275    1.0218   33.5161 H         1 UNK         0.0000 
     50 H50        23.6316    0.2777   32.1859 H         1 UNK         0.0000 
@<TRIPOS>BOND
     1    1    2 1    
     2    1   29 1    
     3    1   30 1    
     4    1   31 1    
     5    2    3 1    
     6    3    4 1    
     7    3   32 1    
     8    3   33 1    
     9    4    5 1    
    10    4   34 1    
    11    4   35 1    
    12    5    6 1    
    13    6   12 ar   
    14    6    7 ar   
    15    7    8 ar   
    16    8    9 ar   
    17    8   15 1    
    18    9   10 ar   
    19    9   36 1    
    20   10   11 1    
    21   10   12 ar   
    22   11   37 1    
    23   11   38 1    
    24   12   13 1    
    25   13   14 3    
    26   15   16 am   BACKBONE|DICT|INTERRES
    27   15   39 1    
    28   16   17 2    
    29   16   18 1    
    30   18   19 1    
    31   18   40 1    
    32   18   41 1    
    33   19   26 ar   
    34   19   20 ar   
    35   20   21 1    
    36   20   23 ar   
    37   21   22 1    
    38   22   42 1    
    39   22   43 1    
    40   22   44 1    
    41   23   24 ar   
    42   23   45 1    
    43   24   25 ar   
    44   24   46 1    
    45   25   26 ar   
    46   25   27 1    
    47   26   47 1    
    48   27   28 1    
    49   28   48 1    
    50   28   49 1    
    51   28   50 1    
@<TRIPOS>SUBSTRUCTURE
     1 UNK         1 GROUP             0       ****    0 ROOT    
