@<TRIPOS>MOLECULE
18632-1
42   43    1
SMALL
USER_CHARGES


@<TRIPOS>ATOM
      1 C1         22.8348   10.6133   29.0685 C.3       1 UNK         0.0000 
      2 C2         23.2564   10.8543   30.5245 C.3       1 UNK         0.0000 
      3 O3         22.1208   11.1384   31.3461 O.3       1 UNK         0.0000 
      4 C4         21.3028   10.1143   31.7943 C.ar      1 UNK         0.0000 
      5 N5         21.6562    8.8449   31.4620 N.ar      1 UNK         0.0000 
      6 C6         20.8562    7.8405   31.8366 C.ar      1 UNK         0.0000 
      7 C7         19.7056    8.0208   32.5847 C.ar      1 UNK         0.0000 
      8 C8         19.3552    9.3103   32.9399 C.ar      1 UNK         0.0000 
      9 N9         18.1854    9.4218   33.6784 N.pl3     1 UNK         0.0000 
     10 C10        20.1562   10.3962   32.5462 C.ar      1 UNK         0.0000 
     11 C11        19.8394   11.7813   32.8754 C.1       1 UNK         0.0000 
     12 N12        19.5962   12.8840   33.1326 N.1       1 UNK         0.0000 
     13 N13        21.3594    6.6315   31.4180 N.am      1 UNK         0.0000 
     14 C14        20.7263    5.4857   31.1542 C.2       1 UNK         0.0000 
     15 O15        19.5060    5.3615   31.2301 O.2       1 UNK         0.0000 
     16 C16        21.5718    4.2763   30.7231 C.3       1 UNK         0.0000 
     17 C17        23.0667    4.5575   30.5721 C.ar      1 UNK         0.0000 
     18 C18        23.9662    4.1691   31.5713 C.ar      1 UNK         0.0000 
     19 C19        25.3371    4.3576   31.4206 C.ar      1 UNK         0.0000 
     20 O20        26.1329    3.8953   32.4456 O.3       1 UNK         0.0000 
     21 C21        27.5411    4.0836   32.3620 C.3       1 UNK         0.0000 
     22 C22        25.8096    4.9784   30.2546 C.ar      1 UNK         0.0000 
     23 C23        24.9199    5.3917   29.2621 C.ar      1 UNK         0.0000 
     24 C24        23.5514    5.1788   29.4197 C.ar      1 UNK         0.0000 
     25 H25        23.7034   10.4793   28.4246 H         1 UNK         0.0000 
     26 H26        22.2151    9.7218   28.9748 H         1 UNK         0.0000 
     27 H27        22.2619   11.4575   28.6854 H         1 UNK         0.0000 
     28 H28        23.8512   10.0252   30.9148 H         1 UNK         0.0000 
     29 H29        23.9087   11.7271   30.5637 H         1 UNK         0.0000 
     30 H30        19.0962    7.1839   32.8816 H         1 UNK         0.0000 
     31 H31        17.7193    8.5829   34.0117 H         1 UNK         0.0000 
     32 H32        17.8208   10.3375   33.9319 H         1 UNK         0.0000 
     33 H33        22.3511    6.6746   31.2616 H         1 UNK         0.0000 
     34 H34        21.4061    3.4780   31.4455 H         1 UNK         0.0000 
     35 H35        21.1892    3.9164   29.7717 H         1 UNK         0.0000 
     36 H36        23.6107    3.6888   32.4714 H         1 UNK         0.0000 
     37 H37        28.0177    3.6454   33.2382 H         1 UNK         0.0000 
     38 H38        27.9621    3.5934   31.4852 H         1 UNK         0.0000 
     39 H39        27.8009    5.1430   32.3415 H         1 UNK         0.0000 
     40 H40        26.8653    5.1405   30.1016 H         1 UNK         0.0000 
     41 H41        25.2923    5.8694   28.3662 H         1 UNK         0.0000 
     42 H42        22.8725    5.4956   28.6399 H         1 UNK         0.0000 
@<TRIPOS>BOND
     1    1    2 1    
     2    1   25 1    
     3    1   26 1    
     4    1   27 1    
     5    2    3 1    
     6    2   28 1    
     7    2   29 1    
     8    3    4 1    
     9    4   10 ar   
    10    4    5 ar   
    11    5    6 ar   
    12    6    7 ar   
    13    6   13 1    
    14    7    8 ar   
    15    7   30 1    
    16    8    9 1    
    17    8   10 ar   
    18    9   31 1    
    19    9   32 1    
    20   10   11 1    
    21   11   12 3    
    22   13   14 am   BACKBONE|DICT|INTERRES
    23   13   33 1    
    24   14   15 2    
    25   14   16 1    
    26   16   17 1    
    27   16   34 1    
    28   16   35 1    
    29   17   24 ar   
    30   17   18 ar   
    31   18   19 ar   
    32   18   36 1    
    33   19   20 1    
    34   19   22 ar   
    35   20   21 1    
    36   21   37 1    
    37   21   38 1    
    38   21   39 1    
    39   22   23 ar   
    40   22   40 1    
    41   23   24 ar   
    42   23   41 1    
    43   24   42 1    
@<TRIPOS>SUBSTRUCTURE
     1 UNK         1 GROUP             0       ****    0 ROOT    
