/home/yujie/leadopt/data/result/selection/HO1/lig_7h.sdf:1
                    3D
 Schrodinger Suite 2021-2.
 43 45  0  0  1  0            999 V2000
  -22.3295  -11.2066    7.1076 O   0  0  0  0  0  0
  -23.5633  -11.2822    7.1059 C   0  0  0  0  0  0
  -24.1790  -12.6962    7.1003 C   0  0  0  0  0  0
  -23.2513  -13.7988    6.7303 N   0  0  0  0  0  0
  -22.6577  -14.0288    5.5009 C   0  0  0  0  0  0
  -22.1668  -15.3161    5.5390 C   0  0  0  0  0  0
  -22.4260  -15.7959    6.8051 N   0  3  0  0  0  0
  -23.0220  -14.8471    7.5479 C   0  0  0  0  0  0
  -24.3861  -10.1795    7.0884 N   0  0  0  0  0  0
  -23.8203   -8.8042    7.0511 C   0  0  0  0  0  0
  -24.1006   -7.9530    5.7962 C   0  0  0  0  0  0
  -23.6699   -6.6004    5.7966 C   0  0  0  0  0  0
  -23.8562   -5.7854    4.6570 C   0  0  0  0  0  0
  -24.4926   -6.3048    3.5099 C   0  0  0  0  0  0
  -24.9556   -7.6376    3.5065 C   0  0  0  0  0  0
  -24.7476   -8.4616    4.6353 C   0  0  0  0  0  0
  -25.8718  -10.2786    7.1048 C   0  0  0  0  0  0
  -26.6603   -9.2808    7.9672 C   0  0  0  0  0  0
  -27.3535   -9.7664    9.1068 C   0  0  0  0  0  0
  -28.1951   -8.9108    9.8520 C   0  0  0  0  0  0
  -28.3459   -7.5587    9.4781 C   0  0  0  0  0  0
  -27.6683   -7.0651    8.3421 C   0  0  0  0  0  0
  -26.8410   -7.9233    7.5813 C   0  0  0  0  0  0
  -25.0010  -12.7444    6.3842 H   0  0  0  0  0  0
  -24.5850  -12.9064    8.0937 H   0  0  0  0  0  0
  -22.7022  -13.3101    4.6911 H   0  0  0  0  0  0
  -21.6770  -15.9120    4.7799 H   0  0  0  0  0  0
  -23.3675  -14.9578    8.5636 H   0  0  0  0  0  0
  -24.1665   -8.2608    7.9316 H   0  0  0  0  0  0
  -22.7353   -8.8218    7.1701 H   0  0  0  0  0  0
  -23.1836   -6.1924    6.6704 H   0  0  0  0  0  0
  -23.5318   -4.7558    4.6702 H   0  0  0  0  0  0
  -24.6368   -5.6789    2.6413 H   0  0  0  0  0  0
  -25.4368   -8.0393    2.6254 H   0  0  0  0  0  0
  -25.0473   -9.4924    4.5664 H   0  0  0  0  0  0
  -26.2614  -10.2233    6.0908 H   0  0  0  0  0  0
  -26.1934  -11.2582    7.4549 H   0  0  0  0  0  0
  -27.2711  -10.8055    9.3917 H   0  0  0  0  0  0
  -28.7325   -9.2937   10.7058 H   0  0  0  0  0  0
  -28.9855   -6.9034   10.0510 H   0  0  0  0  0  0
  -27.8058   -6.0372    8.0423 H   0  0  0  0  0  0
  -26.3995   -7.5327    6.6810 H   0  0  0  0  0  0
  -22.2414  -16.7436    7.1206 H   0  0  0  0  0  0
  1  2  2  0  0  0
  2  3  1  0  0  0
  2  9  1  0  0  0
  3  4  1  0  0  0
  3 24  1  0  0  0
  3 25  1  0  0  0
  4  8  1  0  0  0
  4  5  1  0  0  0
  5  6  2  0  0  0
  5 26  1  0  0  0
  6  7  1  0  0  0
  6 27  1  0  0  0
  7  8  2  0  0  0
  7 43  1  0  0  0
  8 28  1  0  0  0
  9 10  1  0  0  0
  9 17  1  0  0  0
 10 11  1  0  0  0
 10 29  1  0  0  0
 10 30  1  0  0  0
 11 16  1  0  0  0
 11 12  2  0  0  0
 12 13  1  0  0  0
 12 31  1  0  0  0
 13 14  2  0  0  0
 13 32  1  0  0  0
 14 15  1  0  0  0
 14 33  1  0  0  0
 15 16  2  0  0  0
 15 34  1  0  0  0
 16 35  1  0  0  0
 17 18  1  0  0  0
 17 36  1  0  0  0
 17 37  1  0  0  0
 18 23  1  0  0  0
 18 19  2  0  0  0
 19 20  1  0  0  0
 19 38  1  0  0  0
 20 21  2  0  0  0
 20 39  1  0  0  0
 21 22  1  0  0  0
 21 40  1  0  0  0
 22 23  2  0  0  0
 22 41  1  0  0  0
 23 42  1  0  0  0
M  CHG  1   7   1
M  END
> <s_m_entry_id>
313

> <s_m_entry_name>
HO1_lig_7h.1

> <s_m_Source_Path>
C:\Users\yujiethinkpad\Desktop\selection\HO1\original_p

> <s_m_Source_File>
HO1_lig_7h.sdf

> <i_m_Source_File_Index>
1

> <i_lp_mmshare_version>
51139

> <i_f3d_flags>
0

> <s_epik_input>
W2NIXTFuW2NIXVtjSF1uMVtDSDJdQyg9TylOKFtDSDJdYzJbY0hdW2NIXVtjSF1bY0hdW2NIXTIpW0NIMl1jM1tjSF1bY0hdW2NIXVtjSF1bY0hdMw==

> <s_epik_cmdline>
J2VwaWtfcHl0aG9uJywgJy1waHQnLCAnMi4wJywgJy1waCcsICc3LjAnLCAnLXRuJywgJzgnLCAnLW1hJywgJzIwMCcsICctaW1hZScsICc8aW5maWxlLm1hZT4nLCAnLW9tYWUnLCAnPG91dGZpbGUubWFlPic=

> <r_epik_Ionization_Penalty>
  0.5927

> <r_epik_Ionization_Penalty_Charging>
  0.0000

> <r_epik_Ionization_Penalty_Neutral>
  0.5927

> <r_epik_State_Penalty>
  0.6064

> <r_epik_Charging_Adjusted_Penalty>
0.606445

> <i_epik_Tot_Q>
1

> <i_epik_Tot_abs_Q>
1

> <s_lp_Force_Field>
OPLS3e

> <r_lp_Energy>
33.7926

> <b_lp_Chiralities_Consistent>
1

> <s_lp_Variant>
/home/yujie/leadopt/data/result/selection/HO1/lig_7h.sdf:1-2

> <s_i_glide_gridfile>
glide-grid_HO1

> <i_i_glide_lignum>
1

> <i_i_glide_rotatable_bonds>
7

> <r_i_docking_score>
-6.32960916431807

> <r_i_glide_ligand_efficiency>
-0.275200398448612

> <r_i_glide_ligand_efficiency_sa>
-0.78263332517202

> <r_i_glide_ligand_efficiency_ln>
-1.53055688965483

> <r_i_glide_gscore>
-6.93600916431807

> <r_i_glide_lipo>
-3.23858324877692

> <r_i_glide_hbond>
0

> <r_i_glide_metal>
0

> <r_i_glide_rewards>
-2.4815117050552

> <r_i_glide_evdw>
-34.3902740478516

> <r_i_glide_ecoul>
-1.52216637134552

> <r_i_glide_erotb>
0.787098998804542

> <r_i_glide_esite>
-0.0551745511960822

> <r_i_glide_emodel>
-42.5998733987758

> <r_i_glide_energy>
-35.9124404191971

> <r_i_glide_einternal>
3.03986763954163

> <i_i_glide_confnum>
15

> <i_i_glide_posenum>
58

> <r_i_glide_eff_state_penalty>
0.6064

> <r_lp_tautomer_probability>
1

> <s_m_job_name>
glide-dock_SP_all

> <r_glide_shape_similarity>
0.888615727424622

> <s_m_subgroup_title>
glide-dock_SP_all_lib1

> <s_m_subgroupid>
glide-dock_SP_all_lib1

> <b_m_subgroup_collapsed>
0

$$$$
