/home/yujie/leadopt/data/result/selection/HO1/lig_7n.sdf:1
                    3D
 Schrodinger Suite 2021-2.
 43 45  0  0  1  0            999 V2000
  -25.0095  -12.1946    6.4326 O   0  0  0  0  0  0
  -24.0596  -11.5581    6.9013 C   0  0  0  0  0  0
  -22.7691  -12.3299    7.3129 C   0  0  0  0  0  0
  -22.6911  -13.7148    6.7966 N   0  0  0  0  0  0
  -22.4488  -14.0883    5.4930 C   0  0  0  0  0  0
  -22.4317  -15.4650    5.4670 C   0  0  0  0  0  0
  -22.6679  -15.8858    6.7570 N   0  3  0  0  0  0
  -22.8315  -14.8173    7.5643 C   0  0  0  0  0  0
  -24.0998  -10.1926    7.0501 N   0  0  0  0  0  0
  -23.0191   -9.4857    7.7736 C   0  0  0  0  0  0
  -25.2199   -9.3230    6.5189 C   0  0  2  0  0  0
  -24.7688   -8.1295    5.6427 C   0  0  0  0  0  0
  -23.9274   -7.1017    6.1576 C   0  0  0  0  0  0
  -23.4704   -6.0536    5.3382 C   0  0  0  0  0  0
  -23.8954   -5.9937    3.9948 C   0  0  0  0  0  0
  -24.7868   -6.9676    3.4889 C   0  0  0  0  0  0
  -25.2230   -8.0347    4.3034 C   0  0  0  0  0  0
  -26.2769   -8.9423    7.5731 C   0  0  0  0  0  0
  -26.7756   -9.9510    8.4347 C   0  0  0  0  0  0
  -27.7188   -9.6364    9.4301 C   0  0  0  0  0  0
  -28.1429   -8.3008    9.5978 C   0  0  0  0  0  0
  -29.0593   -7.7582   11.3948 I   0  0  0  0  0  0
  -27.7680   -7.3103    8.6652 C   0  0  0  0  0  0
  -26.8263   -7.6298    7.6659 C   0  0  0  0  0  0
  -22.6871  -12.3586    8.4009 H   0  0  0  0  0  0
  -21.8866  -11.8196    6.9266 H   0  0  0  0  0  0
  -22.3164  -13.3637    4.7008 H   0  0  0  0  0  0
  -22.2823  -16.1494    4.6450 H   0  0  0  0  0  0
  -23.0296  -14.8319    8.6216 H   0  0  0  0  0  0
  -22.3050  -10.1196    8.2925 H   0  0  0  0  0  0
  -22.3981   -8.9214    7.0843 H   0  0  0  0  0  0
  -23.4360   -8.8240    8.5367 H   0  0  0  0  0  0
  -25.7973   -9.9485    5.8375 H   0  0  0  0  0  0
  -23.6344   -7.0925    7.1924 H   0  0  0  0  0  0
  -22.8122   -5.2941    5.7421 H   0  0  0  0  0  0
  -23.5682   -5.1845    3.3601 H   0  0  0  0  0  0
  -25.1308   -6.9061    2.4674 H   0  0  0  0  0  0
  -25.9022   -8.7751    3.8946 H   0  0  0  0  0  0
  -26.4124  -10.9649    8.3604 H   0  0  0  0  0  0
  -28.0248  -10.3964   10.1317 H   0  0  0  0  0  0
  -28.1065   -6.2925    8.7712 H   0  0  0  0  0  0
  -26.5226   -6.8530    6.9850 H   0  0  0  0  0  0
  -22.7194  -16.8576    7.0502 H   0  0  0  0  0  0
  1  2  2  0  0  0
  2  3  1  0  0  0
  2  9  1  0  0  0
  3  4  1  0  0  0
  3 25  1  0  0  0
  3 26  1  0  0  0
  4  8  1  0  0  0
  4  5  1  0  0  0
  5  6  2  0  0  0
  5 27  1  0  0  0
  6  7  1  0  0  0
  6 28  1  0  0  0
  7  8  2  0  0  0
  7 43  1  0  0  0
  8 29  1  0  0  0
  9 10  1  0  0  0
  9 11  1  0  0  0
 10 30  1  0  0  0
 10 31  1  0  0  0
 10 32  1  0  0  0
 11 12  1  0  0  0
 11 18  1  0  0  0
 11 33  1  0  0  0
 12 17  1  0  0  0
 12 13  2  0  0  0
 13 14  1  0  0  0
 13 34  1  0  0  0
 14 15  2  0  0  0
 14 35  1  0  0  0
 15 16  1  0  0  0
 15 36  1  0  0  0
 16 17  2  0  0  0
 16 37  1  0  0  0
 17 38  1  0  0  0
 18 24  1  0  0  0
 18 19  2  0  0  0
 19 20  1  0  0  0
 19 39  1  0  0  0
 20 21  2  0  0  0
 20 40  1  0  0  0
 21 22  1  0  0  0
 21 23  1  0  0  0
 23 24  2  0  0  0
 23 41  1  0  0  0
 24 42  1  0  0  0
M  CHG  1   7   1
M  END
> <s_m_entry_id>
321

> <s_m_entry_name>
HO1_lig_7n.1

> <s_m_Source_Path>
C:\Users\yujiethinkpad\Desktop\selection\HO1\original_p

> <s_m_Source_File>
HO1_lig_7n.sdf

> <i_m_Source_File_Index>
1

> <i_lp_mmshare_version>
51139

> <i_f3d_flags>
0

> <s_epik_input>
W2NIXTFuW2NIXVtjSF1uMVtDSDJdQyg9TylOKFtDSDNdKVtDQEhdKGMyW2NIXVtjSF1bY0hdW2NIXVtjSF0yKWMzW2NIXVtjSF1jKEkpW2NIXVtjSF0z

> <s_epik_cmdline>
J2VwaWtfcHl0aG9uJywgJy1waHQnLCAnMi4wJywgJy1waCcsICc3LjAnLCAnLXRuJywgJzgnLCAnLW1hJywgJzIwMCcsICctaW1hZScsICc8aW5maWxlLm1hZT4nLCAnLW9tYWUnLCAnPG91dGZpbGUubWFlPic=

> <r_epik_Ionization_Penalty>
  0.6221

> <r_epik_Ionization_Penalty_Charging>
  0.0000

> <r_epik_Ionization_Penalty_Neutral>
  0.6221

> <r_epik_State_Penalty>
  0.6382

> <r_epik_Charging_Adjusted_Penalty>
0.638167

> <i_epik_Tot_Q>
1

> <i_epik_Tot_abs_Q>
1

> <s_lp_Force_Field>
OPLS3e

> <r_lp_Energy>
48.2792

> <b_lp_Chiralities_Consistent>
1

> <s_lp_Variant>
/home/yujie/leadopt/data/result/selection/HO1/lig_7n.sdf:1-2

> <s_i_glide_gridfile>
glide-grid_HO1

> <i_i_glide_lignum>
7

> <i_i_glide_rotatable_bonds>
6

> <r_i_docking_score>
-5.85116412379717

> <r_i_glide_ligand_efficiency>
-0.243798505158215

> <r_i_glide_ligand_efficiency_sa>
-0.703236577867075

> <r_i_glide_ligand_efficiency_ln>
-1.4004520672511

> <r_i_glide_gscore>
-6.48936412379717

> <r_i_glide_lipo>
-3.29930932630116

> <r_i_glide_hbond>
0

> <r_i_glide_metal>
0

> <r_i_glide_rewards>
-1.61675919493585

> <r_i_glide_evdw>
-37.1592788696289

> <r_i_glide_ecoul>
-1.46157312393188

> <r_i_glide_erotb>
0.532395286908093

> <r_i_glide_esite>
-0.0284909773970303

> <r_i_glide_emodel>
-49.3670041978839

> <r_i_glide_energy>
-38.6208519935608

> <r_i_glide_einternal>
3.75496912002563

> <i_i_glide_confnum>
44

> <i_i_glide_posenum>
10

> <r_i_glide_eff_state_penalty>
0.6382

> <r_lp_tautomer_probability>
1

> <s_m_job_name>
glide-dock_SP_all

> <r_glide_shape_similarity>
0.932286262512207

> <s_m_subgroup_title>
glide-dock_SP_all_lib1

> <s_m_subgroupid>
glide-dock_SP_all_lib1

> <b_m_subgroup_collapsed>
0

$$$$
