/home/yujie/leadopt/data/result/selection/HO1/lig_7p.sdf:1
                    3D
 Schrodinger Suite 2021-2.
 57 60  0  0  1  0            999 V2000
  -27.1049   -7.3353    6.4159 O   0  0  0  0  0  0
  -26.8179   -7.7453    7.5374 C   0  0  0  0  0  0
  -27.6919   -7.2316    8.6808 C   0  0  0  0  0  0
  -28.8610   -8.0580    8.8632 N   0  0  0  0  0  0
  -30.0937   -7.8457    8.3068 C   0  0  0  0  0  0
  -30.8870   -8.8960    8.7069 C   0  0  0  0  0  0
  -30.1034   -9.6836    9.5067 N   0  3  0  0  0  0
  -28.8819   -9.1545    9.6316 C   0  0  0  0  0  0
  -25.7723   -8.5723    7.8076 N   0  0  0  0  0  0
  -25.6270   -9.2284    9.1068 C   0  0  0  0  0  0
  -24.6259   -8.8843    6.9273 C   0  0  2  0  0  0
  -24.4705   -8.0507    5.6684 C   0  0  0  0  0  0
  -23.6316   -6.9245    5.7412 C   0  0  0  0  0  0
  -23.4748   -6.1043    4.6219 C   0  0  0  0  0  0
  -24.1876   -6.3555    3.4358 C   0  0  0  0  0  0
  -25.0409   -7.4737    3.3623 C   0  0  0  0  0  0
  -25.1697   -8.3336    4.4706 C   0  0  0  0  0  0
  -24.4035  -10.3797    6.7537 C   0  0  0  0  0  0
  -25.4853  -11.2150    6.4170 C   0  0  0  0  0  0
  -25.3504  -12.6080    6.5433 C   0  0  0  0  0  0
  -24.1421  -13.1822    6.9944 C   0  0  0  0  0  0
  -24.1772  -14.5435    7.2069 O   0  0  0  0  0  0
  -22.9946  -15.2307    7.5712 C   0  0  0  0  0  0
  -22.1604  -15.6240    6.3730 C   0  0  0  0  0  0
  -21.2658  -16.7096    6.5072 C   0  0  0  0  0  0
  -20.4770  -17.1218    5.4082 C   0  0  0  0  0  0
  -20.5735  -16.4431    4.1704 C   0  0  0  0  0  0
  -19.4914  -17.0011    2.6908 Br  0  0  0  0  0  0
  -21.4679  -15.3522    4.0357 C   0  0  0  0  0  0
  -22.2626  -14.9471    5.1317 C   0  0  0  0  0  0
  -23.0143  -12.3501    7.2218 C   0  0  0  0  0  0
  -23.1572  -10.9531    7.1069 C   0  0  0  0  0  0
  -28.0200   -6.2121    8.4686 H   0  0  0  0  0  0
  -27.1846   -7.2041    9.6206 H   0  0  0  0  0  0
  -30.3091   -7.0082    7.6576 H   0  0  0  0  0  0
  -31.9124   -9.1367    8.4721 H   0  0  0  0  0  0
  -28.1059   -9.5451   10.2567 H   0  0  0  0  0  0
  -25.6619   -8.4963    9.9063 H   0  0  0  0  0  0
  -26.3631  -10.0198    9.2217 H   0  0  0  0  0  0
  -24.6610   -9.7158    9.2384 H   0  0  0  0  0  0
  -23.7747   -8.5728    7.5361 H   0  0  0  0  0  0
  -23.0912   -6.6865    6.6462 H   0  0  0  0  0  0
  -22.7896   -5.2959    4.7056 H   0  0  0  0  0  0
  -24.0693   -5.7043    2.5819 H   0  0  0  0  0  0
  -25.5840   -7.6805    2.4506 H   0  0  0  0  0  0
  -25.8290   -9.1863    4.4072 H   0  0  0  0  0  0
  -26.4363  -10.7929    6.1350 H   0  0  0  0  0  0
  -26.2005  -13.2449    6.3443 H   0  0  0  0  0  0
  -22.4018  -14.7080    8.3199 H   0  0  0  0  0  0
  -23.3208  -16.1530    8.0576 H   0  0  0  0  0  0
  -21.1848  -17.2360    7.4473 H   0  0  0  0  0  0
  -19.8041  -17.9590    5.5084 H   0  0  0  0  0  0
  -21.5500  -14.8341    3.0911 H   0  0  0  0  0  0
  -22.9437  -14.1238    4.9833 H   0  0  0  0  0  0
  -22.0624  -12.7423    7.5439 H   0  0  0  0  0  0
  -22.3224  -10.3209    7.3713 H   0  0  0  0  0  0
  -30.4148  -10.5228    9.9855 H   0  0  0  0  0  0
  1  2  2  0  0  0
  2  3  1  0  0  0
  2  9  1  0  0  0
  3  4  1  0  0  0
  3 33  1  0  0  0
  3 34  1  0  0  0
  4  8  1  0  0  0
  4  5  1  0  0  0
  5  6  2  0  0  0
  5 35  1  0  0  0
  6  7  1  0  0  0
  6 36  1  0  0  0
  7  8  2  0  0  0
  7 57  1  0  0  0
  8 37  1  0  0  0
  9 10  1  0  0  0
  9 11  1  0  0  0
 10 38  1  0  0  0
 10 39  1  0  0  0
 10 40  1  0  0  0
 11 12  1  0  0  0
 11 18  1  0  0  0
 11 41  1  0  0  0
 12 17  1  0  0  0
 12 13  2  0  0  0
 13 14  1  0  0  0
 13 42  1  0  0  0
 14 15  2  0  0  0
 14 43  1  0  0  0
 15 16  1  0  0  0
 15 44  1  0  0  0
 16 17  2  0  0  0
 16 45  1  0  0  0
 17 46  1  0  0  0
 18 32  1  0  0  0
 18 19  2  0  0  0
 19 20  1  0  0  0
 19 47  1  0  0  0
 20 21  2  0  0  0
 20 48  1  0  0  0
 21 22  1  0  0  0
 21 31  1  0  0  0
 22 23  1  0  0  0
 23 24  1  0  0  0
 23 49  1  0  0  0
 23 50  1  0  0  0
 24 30  1  0  0  0
 24 25  2  0  0  0
 25 26  1  0  0  0
 25 51  1  0  0  0
 26 27  2  0  0  0
 26 52  1  0  0  0
 27 28  1  0  0  0
 27 29  1  0  0  0
 29 30  2  0  0  0
 29 53  1  0  0  0
 30 54  1  0  0  0
 31 32  2  0  0  0
 31 55  1  0  0  0
 32 56  1  0  0  0
M  CHG  1   7   1
M  END
> <s_m_entry_id>
318

> <s_m_entry_name>
HO1_lig_7p.1

> <s_m_Source_Path>
C:\Users\yujiethinkpad\Desktop\selection\HO1\original_p

> <s_m_Source_File>
HO1_lig_7p.sdf

> <i_m_Source_File_Index>
1

> <i_lp_mmshare_version>
51139

> <i_f3d_flags>
0

> <s_epik_input>
W2NIXTFuW2NIXVtjSF1uMVtDSDJdQyg9TylOKFtDSDNdKVtDQEhdKGMyW2NIXVtjSF1bY0hdW2NIXVtjSF0yKWMzW2NIXVtjSF1jKFtjSF1bY0hdMylPW0NIMl1jNFtjSF1bY0hdYyhCcilbY0hdW2NIXTQ=

> <s_epik_cmdline>
J2VwaWtfcHl0aG9uJywgJy1waHQnLCAnMi4wJywgJy1waCcsICc3LjAnLCAnLXRuJywgJzgnLCAnLW1hJywgJzIwMCcsICctaW1hZScsICc8aW5maWxlLm1hZT4nLCAnLW9tYWUnLCAnPG91dGZpbGUubWFlPic=

> <r_epik_Ionization_Penalty>
  0.6221

> <r_epik_Ionization_Penalty_Charging>
  0.0000

> <r_epik_Ionization_Penalty_Neutral>
  0.6221

> <r_epik_State_Penalty>
  0.6382

> <r_epik_Charging_Adjusted_Penalty>
0.638167

> <i_epik_Tot_Q>
1

> <i_epik_Tot_abs_Q>
1

> <s_lp_Force_Field>
OPLS3e

> <r_lp_Energy>
55.5891

> <b_lp_Chiralities_Consistent>
1

> <s_lp_Variant>
/home/yujie/leadopt/data/result/selection/HO1/lig_7p.sdf:1-2

> <s_i_glide_gridfile>
glide-grid_HO1

> <i_i_glide_lignum>
9

> <i_i_glide_rotatable_bonds>
9

> <r_i_docking_score>
-6.12876928655406

> <r_i_glide_ligand_efficiency>
-0.191524040204814

> <r_i_glide_ligand_efficiency_sa>
-0.608050925094196

> <r_i_glide_ligand_efficiency_ln>
-1.37239850720051

> <r_i_glide_gscore>
-6.76696928655406

> <r_i_glide_lipo>
-3.51795037786366

> <r_i_glide_hbond>
0

> <r_i_glide_metal>
0

> <r_i_glide_rewards>
-1.82330377711434

> <r_i_glide_evdw>
-35.6047592163086

> <r_i_glide_ecoul>
-2.13274931907654

> <r_i_glide_erotb>
0.674435227100851

> <r_i_glide_esite>
0

> <r_i_glide_emodel>
-17.1295324672968

> <r_i_glide_energy>
-37.7375085353851

> <r_i_glide_einternal>
4.10965204238892

> <i_i_glide_confnum>
83

> <i_i_glide_posenum>
39

> <r_i_glide_eff_state_penalty>
0.6382

> <r_lp_tautomer_probability>
1

> <s_m_job_name>
glide-dock_SP_all

> <r_glide_shape_similarity>
0.616534233093262

> <s_m_subgroup_title>
glide-dock_SP_all_lib1

> <s_m_subgroupid>
glide-dock_SP_all_lib1

> <b_m_subgroup_collapsed>
0

$$$$
