23
                    3D
 Schrodinger Suite 2021-2.
 43 46  0  0  1  0            999 V2000
    3.2598  -47.4888    6.8158 O   0  0  0  0  0  0
    3.1440  -48.6966    6.5002 C   0  0  0  0  0  0
    4.1318  -49.4529    6.3481 O   0  5  0  0  0  0
    1.7779  -49.2110    6.3205 C   0  0  0  0  0  0
    1.5476  -50.8976    6.7055 S   0  0  0  0  0  0
   -0.1845  -50.7485    6.4547 C   0  0  0  0  0  0
   -1.1704  -51.7448    6.6144 C   0  0  0  0  0  0
   -2.5263  -51.4374    6.3718 C   0  0  0  0  0  0
   -2.8902  -50.1389    5.9593 C   0  0  0  0  0  0
   -1.8984  -49.1525    5.7869 C   0  0  0  0  0  0
   -0.5255  -49.4169    6.0380 C   0  0  0  0  0  0
    0.6262  -48.5396    5.9510 C   0  0  0  0  0  0
    0.5469  -47.0960    5.4890 C   0  0  0  0  0  0
    0.3458  -46.0684    6.6247 C   0  0  0  0  0  0
   -0.9830  -46.2060    7.4007 C   0  0  0  0  0  0
   -2.1779  -45.7198    6.7747 O   0  0  0  0  0  0
   -3.3413  -45.7663    7.5447 C   0  0  0  0  0  0
   -5.7321  -45.8030    9.1451 C   0  0  0  0  0  0
   -4.6321  -46.6052    9.4968 C   0  0  0  0  0  0
   -3.4600  -46.5872    8.7093 C   0  0  0  0  0  0
   -0.8842  -52.7381    6.9273 H   0  0  0  0  0  0
   -3.2860  -52.1961    6.4967 H   0  0  0  0  0  0
   -3.9271  -49.9007    5.7671 H   0  0  0  0  0  0
   -2.1979  -48.1655    5.4672 H   0  0  0  0  0  0
    1.4522  -46.8349    4.9393 H   0  0  0  0  0  0
   -0.2564  -46.9904    4.7598 H   0  0  0  0  0  0
    1.1571  -46.2054    7.3388 H   0  0  0  0  0  0
    0.4648  -45.0571    6.2413 H   0  0  0  0  0  0
   -1.1405  -47.2653    7.5510 H   0  0  0  0  0  0
   -0.8677  -45.7291    8.3755 H   0  0  0  0  0  0
   -2.6600  -47.2275    9.0389 H   0  0  0  0  0  0
   -5.6806  -45.0450    7.9513 C   0  0  0  0  0  0
   -4.4871  -45.0060    7.1510 C   0  0  0  0  0  0
   -4.4834  -44.2287    5.9510 C   0  0  0  0  0  0
   -5.6897  -43.6644    5.4740 C   0  0  0  0  0  0
   -6.8862  -43.8060    6.2175 C   0  0  0  0  0  0
   -6.8692  -44.4330    7.4857 C   0  0  0  0  0  0
   -3.5995  -44.2029    5.3303 H   0  0  0  0  0  0
   -5.7016  -43.1523    4.5230 H   0  0  0  0  0  0
   -7.8072  -43.3876    5.8391 H   0  0  0  0  0  0
   -7.7818  -44.5019    8.0601 H   0  0  0  0  0  0
   -4.6850  -47.2573   10.3510 H   0  0  0  0  0  0
   -6.6362  -45.8441    9.7358 H   0  0  0  0  0  0
  1  2  2  0  0  0
  2  3  1  0  0  0
  2  4  1  0  0  0
  4  5  1  0  0  0
  4 12  2  0  0  0
  5  6  1  0  0  0
  6  7  1  0  0  0
  6 11  2  0  0  0
  7  8  2  0  0  0
  7 21  1  0  0  0
  8  9  1  0  0  0
  8 22  1  0  0  0
  9 10  2  0  0  0
  9 23  1  0  0  0
 10 11  1  0  0  0
 10 24  1  0  0  0
 11 12  1  0  0  0
 12 13  1  0  0  0
 13 25  1  0  0  0
 13 26  1  0  0  0
 13 14  1  0  0  0
 14 15  1  0  0  0
 14 27  1  0  0  0
 14 28  1  0  0  0
 15 16  1  0  0  0
 15 29  1  0  0  0
 15 30  1  0  0  0
 16 17  1  0  0  0
 17 20  2  0  0  0
 17 33  1  0  0  0
 18 19  2  0  0  0
 18 32  1  0  0  0
 18 43  1  0  0  0
 19 20  1  0  0  0
 19 42  1  0  0  0
 20 31  1  0  0  0
 32 33  2  0  0  0
 32 37  1  0  0  0
 33 34  1  0  0  0
 34 35  2  0  0  0
 34 38  1  0  0  0
 35 36  1  0  0  0
 35 39  1  0  0  0
 36 37  2  0  0  0
 36 40  1  0  0  0
 37 41  1  0  0  0
M  CHG  1   3  -1
M  END
> <s_m_entry_id>
74

> <s_m_entry_name>
MCL1_23.1

> <r_m_Molecular_weight>
361.44299

> <s_m_Source_Path>
C:\Users\yujiethinkpad\Desktop\05A\MCL1\original

> <s_m_Source_File>
MCL1_23.sdf

> <r_user_dG.exp>
-8.82854391662772

> <s_fepmapper_entryid>
21

> <i_fepmapper_bias>
0

> <i_fepmapper_affinity>
1

> <r_fepmapper_exp_dG>
-8.82854391663

> <i_fepmapper_unit>
1

> <i_m_Source_File_Index>
1

> <s_m_job_name>
glide-dock_SP_redock_1080

> <s_i_glide_gridfile>
glide-grid_MCL1

> <i_i_glide_lignum>
10

> <i_i_glide_rotatable_bonds>
6

> <r_i_docking_score>
-8.99277918195874

> <r_i_glide_ligand_efficiency>
-0.345876122383029

> <r_i_glide_ligand_efficiency_sa>
-1.0246566516029

> <r_i_glide_ligand_efficiency_ln>
-2.11192468316776

> <r_i_glide_gscore>
-8.99277918195874

> <r_i_glide_lipo>
-5.54276232651149

> <r_i_glide_hbond>
-0.2

> <r_i_glide_metal>
0

> <r_i_glide_rewards>
-1.84476422727273

> <r_i_glide_evdw>
-31.5655555725098

> <r_i_glide_ecoul>
-2.59344172477722

> <r_i_glide_erotb>
0.587606020905209

> <r_i_glide_esite>
-0.0255646117376697

> <r_i_glide_emodel>
-46.1562582836711

> <r_i_glide_energy>
-34.158997297287

> <r_i_glide_einternal>
2.82803559303284

> <i_i_glide_confnum>
53

> <i_i_glide_posenum>
31

> <r_i_glide_eff_state_penalty>
0

> <r_glide_shape_similarity>
0.914141774177551

> <s_m_subgroup_title>
glide-dock_SP_redock_1080_lib1

> <s_m_subgroupid>
glide-dock_SP_redock_1080_lib1

> <b_m_subgroup_collapsed>
0

$$$$
