29
                    3D
 Schrodinger Suite 2021-2.
 41 43  0  0  1  0            999 V2000
    4.0240  -49.6344    6.6743 O   0  0  0  0  0  0
    3.0880  -48.8026    6.6184 C   0  0  0  0  0  0
    3.2598  -47.5711    6.8253 O   0  5  0  0  0  0
    1.7119  -49.2665    6.3514 C   0  0  0  0  0  0
   -0.0280  -50.7733    6.4401 C   0  0  0  0  0  0
   -0.8908  -51.8544    6.6794 C   0  0  0  0  0  0
   -2.2882  -51.7104    6.4830 C   0  0  0  0  0  0
   -2.7970  -50.5040    5.9512 C   0  0  0  0  0  0
   -1.9156  -49.4235    5.6648 C   0  0  0  0  0  0
   -0.5221  -49.5137    5.9845 C   0  0  0  0  0  0
    0.5884  -48.5876    5.9507 C   0  0  0  0  0  0
    0.5114  -47.1546    5.5511 C   0  0  0  0  0  0
   -0.1611  -46.3286    6.6395 C   0  0  0  0  0  0
   -1.6853  -46.5565    6.8349 C   0  0  0  0  0  0
   -2.3886  -45.6268    7.6406 O   0  0  0  0  0  0
   -3.6971  -45.3631    7.2507 C   0  0  0  0  0  0
   -4.8069  -45.5350    8.1504 C   0  0  0  0  0  0
   -6.0586  -44.9338    7.8611 C   0  0  0  0  0  0
   -6.2684  -44.2089    6.6727 C   0  0  0  0  0  0
   -5.2081  -44.0386    5.7749 C   0  0  0  0  0  0
   -3.9424  -44.6168    6.0451 C   0  0  0  0  0  0
   -0.4901  -52.7939    7.0405 H   0  0  0  0  0  0
   -2.9511  -52.5202    6.7262 H   0  0  0  0  0  0
   -3.8521  -50.3990    5.7826 H   0  0  0  0  0  0
   -2.3161  -48.5264    5.2391 H   0  0  0  0  0  0
   -0.0613  -47.0510    4.6278 H   0  0  0  0  0  0
    1.4970  -46.7533    5.3125 H   0  0  0  0  0  0
    0.0017  -45.4342    6.1012 H   0  0  0  0  0  0
    0.4230  -46.2315    7.5499 H   0  0  0  0  0  0
   -1.8557  -47.5373    7.2769 H   0  0  0  0  0  0
   -2.1321  -46.5636    5.8469 H   0  0  0  0  0  0
   -3.1458  -44.4740    5.3295 H   0  0  0  0  0  0
    1.3566  -50.5984    6.5592 N   0  0  0  0  0  0
    2.0512  -51.2887    6.8432 H   0  0  0  0  0  0
   -5.3496  -43.4716    4.8648 H   0  0  0  0  0  0
   -7.2407  -43.7948    6.4639 H   0  0  0  0  0  0
   -6.8902  -45.0866    8.5366 H   0  0  0  0  0  0
   -5.5014  -45.7955   10.3514 F   0  0  0  0  0  0
   -4.7732  -46.3992    9.4084 C   0  0  0  0  0  0
   -5.3558  -47.5736    9.1376 F   0  0  0  0  0  0
   -3.5401  -46.6365    9.8664 F   0  0  0  0  0  0
  1  2  2  0  0  0
  2  3  1  0  0  0
  2  4  1  0  0  0
  4 11  2  0  0  0
  4 33  1  0  0  0
  5  6  1  0  0  0
  5 10  2  0  0  0
  5 33  1  0  0  0
  6  7  2  0  0  0
  6 22  1  0  0  0
  7  8  1  0  0  0
  7 23  1  0  0  0
  8  9  2  0  0  0
  8 24  1  0  0  0
  9 10  1  0  0  0
  9 25  1  0  0  0
 10 11  1  0  0  0
 11 12  1  0  0  0
 12 26  1  0  0  0
 12 27  1  0  0  0
 12 13  1  0  0  0
 13 14  1  0  0  0
 13 28  1  0  0  0
 13 29  1  0  0  0
 14 15  1  0  0  0
 14 30  1  0  0  0
 14 31  1  0  0  0
 15 16  1  0  0  0
 16 17  1  0  0  0
 16 21  2  0  0  0
 17 18  2  0  0  0
 17 39  1  0  0  0
 18 19  1  0  0  0
 18 37  1  0  0  0
 19 20  2  0  0  0
 19 36  1  0  0  0
 20 21  1  0  0  0
 20 35  1  0  0  0
 21 32  1  0  0  0
 33 34  1  0  0  0
 38 39  1  0  0  0
 39 40  1  0  0  0
 39 41  1  0  0  0
M  CHG  1   3  -1
M  END
> <s_m_entry_id>
83

> <s_m_entry_name>
MCL1_29.1

> <r_m_Molecular_weight>
362.3315

> <s_m_Source_Path>
C:\Users\yujiethinkpad\Desktop\05A\MCL1\original

> <s_m_Source_File>
MCL1_29.sdf

> <r_user_dG.exp>
-6.93940556519089

> <s_fepmapper_entryid>
22

> <i_fepmapper_bias>
0

> <i_fepmapper_affinity>
1

> <r_fepmapper_exp_dG>
-6.93940556519

> <i_fepmapper_unit>
1

> <i_m_Source_File_Index>
1

> <s_m_job_name>
glide-dock_SP_redock_1080

> <s_i_glide_gridfile>
glide-grid_MCL1

> <i_i_glide_lignum>
14

> <i_i_glide_rotatable_bonds>
7

> <r_i_docking_score>
-8.51717915967966

> <r_i_glide_ligand_efficiency>
-0.327583813833833

> <r_i_glide_ligand_efficiency_sa>
-0.970465759502666

> <r_i_glide_ligand_efficiency_ln>
-2.00023157850647

> <r_i_glide_gscore>
-8.51717915967966

> <r_i_glide_lipo>
-4.37900315986857

> <r_i_glide_hbond>
-0.2

> <r_i_glide_metal>
0

> <r_i_glide_rewards>
-2.97942221718021

> <r_i_glide_evdw>
-27.0802803039551

> <r_i_glide_ecoul>
-2.11441898345947

> <r_i_glide_erotb>
0.731300272525245

> <r_i_glide_esite>
-0.0188771924394501

> <r_i_glide_emodel>
-37.4165854150833

> <r_i_glide_energy>
-29.1946992874146

> <r_i_glide_einternal>
7.56998538970947

> <i_i_glide_confnum>
63

> <i_i_glide_posenum>
154

> <r_i_glide_eff_state_penalty>
0

> <r_glide_shape_similarity>
0.9078768491745

> <s_m_subgroup_title>
glide-dock_SP_redock_1080_lib1

> <s_m_subgroupid>
glide-dock_SP_redock_1080_lib1

> <b_m_subgroup_collapsed>
0

$$$$
