30
                    3D
 Schrodinger Suite 2021-2.
 41 43  0  0  1  0            999 V2000
    3.2599  -47.6771    6.7509 O   0  0  0  0  0  0
    3.0256  -48.8906    6.5805 C   0  0  0  0  0  0
    3.9093  -49.7655    6.6299 O   0  5  0  0  0  0
    1.6402  -49.2760    6.3559 C   0  0  0  0  0  0
   -0.1554  -50.6701    6.4342 C   0  0  0  0  0  0
   -1.0892  -51.7022    6.6097 C   0  0  0  0  0  0
   -2.4504  -51.4494    6.3802 C   0  0  0  0  0  0
   -2.8657  -50.1803    5.9624 C   0  0  0  0  0  0
   -1.9246  -49.1648    5.7729 C   0  0  0  0  0  0
   -0.5597  -49.3815    6.0186 C   0  0  0  0  0  0
    0.5775  -48.5329    5.9519 C   0  0  0  0  0  0
    0.5814  -47.1107    5.5125 C   0  0  0  0  0  0
    0.4439  -46.1240    6.6670 C   0  0  0  0  0  0
   -0.9241  -46.2061    7.3292 C   0  0  0  0  0  0
   -1.9399  -45.8045    6.4430 O   0  0  0  0  0  0
   -3.1469  -45.4751    7.0025 C   0  0  0  0  0  0
   -3.5914  -46.0556    8.2018 C   0  0  0  0  0  0
   -4.8781  -45.7899    8.6780 C   0  0  0  0  0  0
   -5.7477  -44.9589    7.9585 C   0  0  0  0  0  0
   -5.3220  -44.3797    6.7522 C   0  0  0  0  0  0
   -4.0084  -44.6066    6.2988 C   0  0  0  0  0  0
   -0.7651  -52.6823    6.9286 H   0  0  0  0  0  0
   -3.1771  -52.2382    6.5157 H   0  0  0  0  0  0
   -3.9137  -49.9917    5.7739 H   0  0  0  0  0  0
   -2.2588  -48.1920    5.4421 H   0  0  0  0  0  0
   -0.2131  -46.9508    4.7829 H   0  0  0  0  0  0
    1.4987  -46.8870    4.9644 H   0  0  0  0  0  0
    0.6157  -45.1120    6.3032 H   0  0  0  0  0  0
    1.2234  -46.3042    7.4079 H   0  0  0  0  0  0
   -0.9243  -45.6227    8.2525 H   0  0  0  0  0  0
   -1.1476  -47.2403    7.5520 H   0  0  0  0  0  0
   -2.9689  -46.7398    8.7604 H   0  0  0  0  0  0
   -3.6866  -44.2037    5.3498 H   0  0  0  0  0  0
    1.2131  -50.5721    6.5864 N   0  0  0  0  0  0
    1.8611  -51.2882    6.8788 H   0  0  0  0  0  0
   -5.9963  -43.7579    6.1802 H   0  0  0  0  0  0
   -6.7493  -44.7691    8.3195 H   0  0  0  0  0  0
   -5.3173  -46.4334    9.9515 C   0  0  0  0  0  0
   -5.9077  -45.7392   10.5554 H   0  0  0  0  0  0
   -4.4314  -46.7326   10.5182 H   0  0  0  0  0  0
   -5.9165  -47.3246    9.7483 H   0  0  0  0  0  0
  1  2  2  0  0  0
  2  3  1  0  0  0
  2  4  1  0  0  0
  4 11  2  0  0  0
  4 34  1  0  0  0
  5  6  1  0  0  0
  5 10  2  0  0  0
  5 34  1  0  0  0
  6  7  2  0  0  0
  6 22  1  0  0  0
  7  8  1  0  0  0
  7 23  1  0  0  0
  8  9  2  0  0  0
  8 24  1  0  0  0
  9 10  1  0  0  0
  9 25  1  0  0  0
 10 11  1  0  0  0
 11 12  1  0  0  0
 12 26  1  0  0  0
 12 27  1  0  0  0
 12 13  1  0  0  0
 13 14  1  0  0  0
 13 28  1  0  0  0
 13 29  1  0  0  0
 14 15  1  0  0  0
 14 30  1  0  0  0
 14 31  1  0  0  0
 15 16  1  0  0  0
 16 17  1  0  0  0
 16 21  2  0  0  0
 17 18  2  0  0  0
 17 32  1  0  0  0
 18 19  1  0  0  0
 18 38  1  0  0  0
 19 20  2  0  0  0
 19 37  1  0  0  0
 20 21  1  0  0  0
 20 36  1  0  0  0
 21 33  1  0  0  0
 34 35  1  0  0  0
 38 39  1  0  0  0
 38 40  1  0  0  0
 38 41  1  0  0  0
M  CHG  1   3  -1
M  END
> <s_m_entry_id>
108

> <s_m_entry_name>
MCL1_30.1

> <r_m_Molecular_weight>
308.36021

> <s_m_Source_Path>
C:\Users\yujiethinkpad\Desktop\05A\MCL1\original

> <s_m_Source_File>
MCL1_30.sdf

> <r_user_dG.exp>
-7.85321195175529

> <s_fepmapper_entryid>
18

> <i_fepmapper_bias>
0

> <i_fepmapper_affinity>
1

> <r_fepmapper_exp_dG>
-7.85321195176

> <i_fepmapper_unit>
1

> <i_m_Source_File_Index>
1

> <s_m_job_name>
glide-dock_SP_redock_1080

> <s_i_glide_gridfile>
glide-grid_MCL1

> <i_i_glide_lignum>
15

> <i_i_glide_rotatable_bonds>
6

> <r_i_docking_score>
-7.23632941452791

> <r_i_glide_ligand_efficiency>
-0.314623018022952

> <r_i_glide_ligand_efficiency_sa>
-0.894746011121561

> <r_i_glide_ligand_efficiency_ln>
-1.74981006784024

> <r_i_glide_gscore>
-7.23632941452791

> <r_i_glide_lipo>
-4.38030546321508

> <r_i_glide_hbond>
-0.2

> <r_i_glide_metal>
0

> <r_i_glide_rewards>
-1.96021846511495

> <r_i_glide_evdw>
-24.5745506286621

> <r_i_glide_ecoul>
-2.87249183654785

> <r_i_glide_erotb>
0.972874471200538

> <r_i_glide_esite>
-0.00907865048312985

> <r_i_glide_emodel>
-38.3363620509646

> <r_i_glide_energy>
-27.44704246521

> <r_i_glide_einternal>
3.93501949310303

> <i_i_glide_confnum>
261

> <i_i_glide_posenum>
20

> <r_i_glide_eff_state_penalty>
0

> <r_glide_shape_similarity>
0.921496987342834

> <s_m_subgroup_title>
glide-dock_SP_redock_1080_lib1

> <s_m_subgroupid>
glide-dock_SP_redock_1080_lib1

> <b_m_subgroup_collapsed>
0

$$$$
