36
                    3D
 Schrodinger Suite 2021-2.
 44 46  0  0  1  0            999 V2000
    3.2603  -47.7626    6.7575 O   0  0  0  0  0  0
    2.9843  -48.9668    6.5783 C   0  0  0  0  0  0
    3.8393  -49.8738    6.6185 O   0  5  0  0  0  0
    1.5834  -49.3181    6.3545 C   0  0  0  0  0  0
   -0.2133  -50.7148    6.4230 C   0  0  0  0  0  0
   -1.1335  -51.7664    6.5851 C   0  0  0  0  0  0
   -2.5032  -51.5252    6.3668 C   0  0  0  0  0  0
   -2.9419  -50.2487    5.9768 C   0  0  0  0  0  0
   -2.0059  -49.2149    5.8024 C   0  0  0  0  0  0
   -0.6285  -49.4146    6.0305 C   0  0  0  0  0  0
    0.5182  -48.5604    5.9633 C   0  0  0  0  0  0
    0.5482  -47.1270    5.5420 C   0  0  0  0  0  0
    0.4036  -46.1116    6.6945 C   0  0  0  0  0  0
   -0.9852  -46.0743    7.3588 C   0  0  0  0  0  0
   -1.9230  -45.8073    6.3460 O   0  0  0  0  0  0
   -3.1793  -45.3958    6.6854 C   0  0  0  0  0  0
   -3.8541  -45.8104    7.8515 C   0  0  0  0  0  0
   -5.2081  -45.4571    8.0226 C   0  0  0  0  0  0
   -5.8570  -44.6043    7.1014 C   0  0  0  0  0  0
   -5.1666  -44.1580    5.9611 C   0  0  0  0  0  0
   -3.8554  -44.6068    5.7306 C   0  0  0  0  0  0
   -0.7925  -52.7473    6.8801 H   0  0  0  0  0  0
   -3.2185  -52.3253    6.4918 H   0  0  0  0  0  0
   -3.9923  -50.0625    5.8001 H   0  0  0  0  0  0
   -2.3510  -48.2389    5.4978 H   0  0  0  0  0  0
    1.4773  -46.9190    5.0102 H   0  0  0  0  0  0
   -0.2326  -46.9597    4.8002 H   0  0  0  0  0  0
    1.1850  -46.2210    7.4471 H   0  0  0  0  0  0
    0.5970  -45.1243    6.2746 H   0  0  0  0  0  0
   -1.2482  -47.0118    7.8261 H   0  0  0  0  0  0
   -1.0146  -45.2991    8.1251 H   0  0  0  0  0  0
   -3.3789  -46.4755    8.5580 H   0  0  0  0  0  0
   -3.3731  -44.3467    4.7949 H   0  0  0  0  0  0
    1.1544  -50.6193    6.5674 N   0  0  0  0  0  0
    1.7995  -51.3471    6.8386 H   0  0  0  0  0  0
   -5.6654  -43.5478    5.2227 H   0  0  0  0  0  0
   -7.5341  -44.2066    7.2466 Cl  0  0  0  0  0  0
   -6.0068  -46.1297    9.1074 C   0  0  0  0  0  0
   -7.0473  -46.2166    8.8073 H   0  0  0  0  0  0
   -5.6456  -47.1471    9.2577 H   0  0  0  0  0  0
   -5.9469  -45.3608   10.3947 C   0  0  0  0  0  0
   -6.6022  -45.8071   11.1418 H   0  0  0  0  0  0
   -4.9280  -45.4089   10.7553 H   0  0  0  0  0  0
   -6.2589  -44.3228   10.2687 H   0  0  0  0  0  0
  1  2  2  0  0  0
  2  3  1  0  0  0
  2  4  1  0  0  0
  4 11  2  0  0  0
  4 34  1  0  0  0
  5  6  1  0  0  0
  5 10  2  0  0  0
  5 34  1  0  0  0
  6  7  2  0  0  0
  6 22  1  0  0  0
  7  8  1  0  0  0
  7 23  1  0  0  0
  8  9  2  0  0  0
  8 24  1  0  0  0
  9 10  1  0  0  0
  9 25  1  0  0  0
 10 11  1  0  0  0
 11 12  1  0  0  0
 12 26  1  0  0  0
 12 27  1  0  0  0
 12 13  1  0  0  0
 13 14  1  0  0  0
 13 28  1  0  0  0
 13 29  1  0  0  0
 14 15  1  0  0  0
 14 30  1  0  0  0
 14 31  1  0  0  0
 15 16  1  0  0  0
 16 17  1  0  0  0
 16 21  2  0  0  0
 17 18  2  0  0  0
 17 32  1  0  0  0
 18 19  1  0  0  0
 18 38  1  0  0  0
 19 20  2  0  0  0
 19 37  1  0  0  0
 20 21  1  0  0  0
 20 36  1  0  0  0
 21 33  1  0  0  0
 34 35  1  0  0  0
 38 39  1  0  0  0
 38 40  1  0  0  0
 38 41  1  0  0  0
 41 42  1  0  0  0
 41 43  1  0  0  0
 41 44  1  0  0  0
M  CHG  1   3  -1
M  END
> <s_m_entry_id>
92

> <s_m_entry_name>
MCL1_36.1

> <r_m_Molecular_weight>
356.83233

> <s_m_Source_Path>
C:\Users\yujiethinkpad\Desktop\05A\MCL1\original

> <s_m_Source_File>
MCL1_36.sdf

> <r_user_dG.exp>
-8.17902305143249

> <s_fepmapper_entryid>
37

> <i_fepmapper_bias>
0

> <i_fepmapper_affinity>
1

> <r_fepmapper_exp_dG>
-8.17902305143

> <i_fepmapper_unit>
1

> <i_m_Source_File_Index>
1

> <s_m_job_name>
glide-dock_SP_redock_1080

> <s_i_glide_gridfile>
glide-grid_MCL1

> <i_i_glide_lignum>
21

> <i_i_glide_rotatable_bonds>
7

> <r_i_docking_score>
-8.19398281662765

> <r_i_glide_ligand_efficiency>
-0.327759312665106

> <r_i_glide_ligand_efficiency_sa>
-0.958374043068931

> <r_i_glide_ligand_efficiency_ln>
-1.94221948139079

> <r_i_glide_gscore>
-8.19398281662765

> <r_i_glide_lipo>
-5.07910226070487

> <r_i_glide_hbond>
-0.2

> <r_i_glide_metal>
0

> <r_i_glide_rewards>
-1.74053016931063

> <r_i_glide_evdw>
-29.7578716278076

> <r_i_glide_ecoul>
-2.89944648742676

> <r_i_glide_erotb>
0.751512930677006

> <r_i_glide_esite>
-0.00305276278475971

> <r_i_glide_emodel>
-45.4529808461617

> <r_i_glide_energy>
-32.6573181152344

> <r_i_glide_einternal>
4.78443193435669

> <i_i_glide_confnum>
159

> <i_i_glide_posenum>
102

> <r_i_glide_eff_state_penalty>
0

> <r_glide_shape_similarity>
0.919090986251831

> <s_m_subgroup_title>
glide-dock_SP_redock_1080_lib1

> <s_m_subgroupid>
glide-dock_SP_redock_1080_lib1

> <b_m_subgroup_collapsed>
0

$$$$
