37
                    3D
 Schrodinger Suite 2021-2.
 44 46  0  0  1  0            999 V2000
    3.2599  -47.8092    6.7632 O   0  0  0  0  0  0
    2.9674  -49.0143    6.5991 C   0  0  0  0  0  0
    3.8116  -49.9333    6.6613 O   0  5  0  0  0  0
    1.5598  -49.3656    6.3672 C   0  0  0  0  0  0
   -0.2416  -50.7667    6.4267 C   0  0  0  0  0  0
   -1.1614  -51.8230    6.5915 C   0  0  0  0  0  0
   -2.5354  -51.5921    6.3665 C   0  0  0  0  0  0
   -2.9772  -50.3178    5.9577 C   0  0  0  0  0  0
   -2.0434  -49.2810    5.7645 C   0  0  0  0  0  0
   -0.6609  -49.4681    6.0134 C   0  0  0  0  0  0
    0.4959  -48.6108    5.9515 C   0  0  0  0  0  0
    0.5457  -47.1803    5.4900 C   0  0  0  0  0  0
    0.4156  -46.1740    6.6401 C   0  0  0  0  0  0
   -0.9709  -46.2056    7.2847 C   0  0  0  0  0  0
   -1.9370  -45.8063    6.3377 O   0  0  0  0  0  0
   -3.1734  -45.4406    6.8027 C   0  0  0  0  0  0
   -3.9574  -44.6059    5.9764 C   0  0  0  0  0  0
   -5.2712  -44.2135    6.3513 C   0  0  0  0  0  0
   -6.1432  -43.4650    5.3575 C   0  0  0  0  0  0
   -5.8120  -44.7454    7.5567 C   0  0  0  0  0  0
   -7.4801  -44.5154    7.9521 Cl  0  0  0  0  0  0
   -5.0193  -45.5758    8.3899 C   0  0  0  0  0  0
   -5.5673  -46.1517    9.6788 C   0  0  0  0  0  0
   -3.7100  -45.9203    8.0132 C   0  0  0  0  0  0
   -0.8166  -52.7989    6.8996 H   0  0  0  0  0  0
   -3.2487  -52.3924    6.5022 H   0  0  0  0  0  0
   -4.0279  -50.1387    5.7764 H   0  0  0  0  0  0
   -2.3930  -48.3106    5.4428 H   0  0  0  0  0  0
   -0.2362  -47.0061    4.7507 H   0  0  0  0  0  0
    1.4795  -46.9922    4.9589 H   0  0  0  0  0  0
    0.6116  -45.1722    6.2639 H   0  0  0  0  0  0
    1.1826  -46.3633    7.3920 H   0  0  0  0  0  0
   -0.9885  -45.5763    8.1765 H   0  0  0  0  0  0
   -1.2293  -47.2234    7.5534 H   0  0  0  0  0  0
   -3.5554  -44.2817    5.0285 H   0  0  0  0  0  0
   -5.5290  -42.8780    4.6771 H   0  0  0  0  0  0
   -6.8466  -42.7939    5.8472 H   0  0  0  0  0  0
   -6.7124  -44.1747    4.7563 H   0  0  0  0  0  0
   -4.9071  -46.9170   10.0896 H   0  0  0  0  0  0
   -5.6788  -45.3618   10.4228 H   0  0  0  0  0  0
   -6.5421  -46.6058    9.5165 H   0  0  0  0  0  0
   -3.1392  -46.5815    8.6480 H   0  0  0  0  0  0
    1.1282  -50.6716    6.5856 N   0  0  0  0  0  0
    1.7698  -51.4037    6.8644 H   0  0  0  0  0  0
  1  2  2  0  0  0
  2  3  1  0  0  0
  2  4  1  0  0  0
  4 11  2  0  0  0
  4 43  1  0  0  0
  5  6  1  0  0  0
  5 10  2  0  0  0
  5 43  1  0  0  0
  6  7  2  0  0  0
  6 25  1  0  0  0
  7  8  1  0  0  0
  7 26  1  0  0  0
  8  9  2  0  0  0
  8 27  1  0  0  0
  9 10  1  0  0  0
  9 28  1  0  0  0
 10 11  1  0  0  0
 11 12  1  0  0  0
 12 29  1  0  0  0
 12 30  1  0  0  0
 12 13  1  0  0  0
 13 14  1  0  0  0
 13 31  1  0  0  0
 13 32  1  0  0  0
 14 15  1  0  0  0
 14 33  1  0  0  0
 14 34  1  0  0  0
 15 16  1  0  0  0
 16 17  1  0  0  0
 16 24  2  0  0  0
 17 18  2  0  0  0
 17 35  1  0  0  0
 18 19  1  0  0  0
 18 20  1  0  0  0
 19 36  1  0  0  0
 19 37  1  0  0  0
 19 38  1  0  0  0
 20 21  1  0  0  0
 20 22  2  0  0  0
 22 23  1  0  0  0
 22 24  1  0  0  0
 23 39  1  0  0  0
 23 40  1  0  0  0
 23 41  1  0  0  0
 24 42  1  0  0  0
 43 44  1  0  0  0
M  CHG  1   3  -1
M  END
> <s_m_entry_id>
85

> <s_m_entry_name>
MCL1_37.1

> <r_m_Molecular_weight>
356.83233

> <s_m_Source_Path>
C:\Users\yujiethinkpad\Desktop\05A\MCL1\original

> <s_m_Source_File>
MCL1_37.sdf

> <r_user_dG.exp>
-8.95356461676206

> <s_fepmapper_entryid>
17

> <i_fepmapper_bias>
0

> <i_fepmapper_affinity>
1

> <r_fepmapper_exp_dG>
-8.95356461676

> <i_fepmapper_unit>
1

> <i_m_Source_File_Index>
1

> <s_m_job_name>
glide-dock_SP_redock_1080

> <s_i_glide_gridfile>
glide-grid_MCL1

> <i_i_glide_lignum>
22

> <i_i_glide_rotatable_bonds>
6

> <r_i_docking_score>
-8.44302084276824

> <r_i_glide_ligand_efficiency>
-0.33772083371073

> <r_i_glide_ligand_efficiency_sa>
-0.987501707274663

> <r_i_glide_ligand_efficiency_ln>
-2.00124895665352

> <r_i_glide_gscore>
-8.44302084276824

> <r_i_glide_lipo>
-5.07704164047457

> <r_i_glide_hbond>
-0.2

> <r_i_glide_metal>
0

> <r_i_glide_rewards>
-1.81393797032671

> <r_i_glide_evdw>
-33.3214530944824

> <r_i_glide_ecoul>
-2.91274189949036

> <r_i_glide_erotb>
0.751512930677006

> <r_i_glide_esite>
-0.00057022299629198

> <r_i_glide_emodel>
-49.291699386348

> <r_i_glide_energy>
-36.2341949939728

> <r_i_glide_einternal>
9.31081962585449

> <i_i_glide_confnum>
290

> <i_i_glide_posenum>
1

> <r_i_glide_eff_state_penalty>
0

> <r_glide_shape_similarity>
0.933559596538544

> <s_m_subgroup_title>
glide-dock_SP_redock_1080_lib1

> <s_m_subgroupid>
glide-dock_SP_redock_1080_lib1

> <b_m_subgroup_collapsed>
0

$$$$
