43
                    3D
 Schrodinger Suite 2021-2.
 44 47  0  0  1  0            999 V2000
    3.9635  -49.7634    6.6122 O   0  0  0  0  0  0
    3.0546  -48.8988    6.5723 C   0  0  0  0  0  0
    3.2639  -47.6754    6.7574 O   0  5  0  0  0  0
    1.6556  -49.3032    6.3515 C   0  0  0  0  0  0
   -0.1682  -50.7025    6.4371 C   0  0  0  0  0  0
   -1.1210  -51.7396    6.6083 C   0  0  0  0  0  0
   -2.4951  -51.4762    6.3788 C   0  0  0  0  0  0
   -2.9091  -50.1852    5.9683 C   0  0  0  0  0  0
   -1.9549  -49.1602    5.7952 C   0  0  0  0  0  0
   -0.5757  -49.3897    6.0267 C   0  0  0  0  0  0
    0.5805  -48.5456    5.9510 C   0  0  0  0  0  0
    0.5911  -47.1097    5.5123 C   0  0  0  0  0  0
    0.4978  -46.1199    6.6938 C   0  0  0  0  0  0
   -0.8818  -46.0667    7.3567 C   0  0  0  0  0  0
   -1.8331  -45.8062    6.3348 O   0  0  0  0  0  0
   -3.0816  -45.4054    6.7167 C   0  0  0  0  0  0
   -5.1585  -44.2045    6.1550 C   0  0  0  0  0  0
   -3.8526  -44.6095    5.8241 C   0  0  0  0  0  0
   -0.8007  -52.7279    6.9151 H   0  0  0  0  0  0
   -3.2247  -52.2598    6.5076 H   0  0  0  0  0  0
   -3.9553  -49.9875    5.7939 H   0  0  0  0  0  0
   -2.2873  -48.1809    5.4813 H   0  0  0  0  0  0
    1.5191  -46.9085    4.9675 H   0  0  0  0  0  0
   -0.2061  -46.9401    4.7886 H   0  0  0  0  0  0
    1.2465  -46.3354    7.4526 H   0  0  0  0  0  0
    0.7404  -45.1227    6.3202 H   0  0  0  0  0  0
   -1.1427  -47.0058    7.8364 H   0  0  0  0  0  0
   -0.8945  -45.2781    8.1103 H   0  0  0  0  0  0
   -3.4523  -44.3283    4.8511 H   0  0  0  0  0  0
   -3.6168  -45.8104    7.9592 C   0  0  0  0  0  0
   -5.7413  -43.6154    5.4627 H   0  0  0  0  0  0
   -4.9098  -45.4061    8.3017 C   0  0  0  0  0  0
   -5.6903  -44.6255    7.3882 C   0  0  0  0  0  0
   -7.0273  -44.3155    7.6943 C   0  0  0  0  0  0
   -7.5393  -44.7945    8.9131 C   0  0  0  0  0  0
   -6.7393  -45.4766    9.8612 C   0  0  0  0  0  0
   -5.4252  -45.8244    9.5454 C   0  0  0  0  0  0
   -7.6668  -43.7739    7.0040 H   0  0  0  0  0  0
   -8.5620  -44.6070    9.1517 H   0  0  0  0  0  0
   -7.1525  -45.8085   10.7970 H   0  0  0  0  0  0
   -4.8174  -46.3923   10.2403 H   0  0  0  0  0  0
   -3.0670  -46.4340    8.6464 H   0  0  0  0  0  0
    1.2206  -50.6165    6.5786 N   0  0  0  0  0  0
    1.8664  -51.3492    6.8583 H   0  0  0  0  0  0
  1  2  2  0  0  0
  2  3  1  0  0  0
  2  4  1  0  0  0
  4 11  2  0  0  0
  4 43  1  0  0  0
  5  6  1  0  0  0
  5 10  2  0  0  0
  5 43  1  0  0  0
  6  7  2  0  0  0
  6 19  1  0  0  0
  7  8  1  0  0  0
  7 20  1  0  0  0
  8  9  2  0  0  0
  8 21  1  0  0  0
  9 10  1  0  0  0
  9 22  1  0  0  0
 10 11  1  0  0  0
 11 12  1  0  0  0
 12 23  1  0  0  0
 12 24  1  0  0  0
 12 13  1  0  0  0
 13 14  1  0  0  0
 13 25  1  0  0  0
 13 26  1  0  0  0
 14 15  1  0  0  0
 14 27  1  0  0  0
 14 28  1  0  0  0
 15 16  1  0  0  0
 16 18  2  0  0  0
 16 30  1  0  0  0
 17 18  1  0  0  0
 17 31  1  0  0  0
 17 33  2  0  0  0
 18 29  1  0  0  0
 30 32  2  0  0  0
 30 42  1  0  0  0
 32 33  1  0  0  0
 32 37  1  0  0  0
 33 34  1  0  0  0
 34 35  2  0  0  0
 34 38  1  0  0  0
 35 36  1  0  0  0
 35 39  1  0  0  0
 36 37  2  0  0  0
 36 40  1  0  0  0
 37 41  1  0  0  0
 43 44  1  0  0  0
M  CHG  1   3  -1
M  END
> <s_m_entry_id>
84

> <s_m_entry_name>
MCL1_43.1

> <r_m_Molecular_weight>
344.39366

> <s_m_Source_Path>
C:\Users\yujiethinkpad\Desktop\05A\MCL1\original

> <s_m_Source_File>
MCL1_43.sdf

> <r_user_dG.exp>
-7.03469617128338

> <s_fepmapper_entryid>
43

> <i_fepmapper_bias>
0

> <i_fepmapper_affinity>
1

> <r_fepmapper_exp_dG>
-7.03469617128

> <i_fepmapper_unit>
1

> <i_m_Source_File_Index>
1

> <s_m_job_name>
glide-dock_SP_redock_1080

> <s_i_glide_gridfile>
glide-grid_MCL1

> <i_i_glide_lignum>
28

> <i_i_glide_rotatable_bonds>
6

> <r_i_docking_score>
-8.47117662403488

> <r_i_glide_ligand_efficiency>
-0.325814485539803

> <r_i_glide_ligand_efficiency_sa>
-0.965224131393572

> <r_i_glide_ligand_efficiency_ln>
-1.98942803395693

> <r_i_glide_gscore>
-8.47117662403488

> <r_i_glide_lipo>
-5.38091788724969

> <r_i_glide_hbond>
-0.2

> <r_i_glide_metal>
0

> <r_i_glide_rewards>
-1.86145769565371

> <r_i_glide_evdw>
-23.5201473236084

> <r_i_glide_ecoul>
-3.21363425254822

> <r_i_glide_erotb>
0.640363311436548

> <r_i_glide_esite>
-0.0111118485053704

> <r_i_glide_emodel>
-32.9641025772081

> <r_i_glide_energy>
-26.7337815761566

> <r_i_glide_einternal>
4.61648511886597

> <i_i_glide_confnum>
39

> <i_i_glide_posenum>
36

> <r_i_glide_eff_state_penalty>
0

> <r_glide_shape_similarity>
0.896104633808136

> <s_m_subgroup_title>
glide-dock_SP_redock_1080_lib1

> <s_m_subgroupid>
glide-dock_SP_redock_1080_lib1

> <b_m_subgroup_collapsed>
0

$$$$
