47
                    3D
 Schrodinger Suite 2021-2.
 43 46  0  0  1  0            999 V2000
    3.9742  -49.7554    6.6356 O   0  0  0  0  0  0
    3.0637  -48.8961    6.5748 C   0  0  0  0  0  0
    3.2671  -47.6692    6.7513 O   0  5  0  0  0  0
    1.6591  -49.3005    6.3623 C   0  0  0  0  0  0
   -0.1550  -50.7115    6.4462 C   0  0  0  0  0  0
   -1.0978  -51.7488    6.6282 C   0  0  0  0  0  0
   -2.4734  -51.4941    6.3920 C   0  0  0  0  0  0
   -2.8902  -50.2133    5.9633 C   0  0  0  0  0  0
   -1.9469  -49.1809    5.7897 C   0  0  0  0  0  0
   -0.5681  -49.4016    6.0334 C   0  0  0  0  0  0
    0.5866  -48.5477    5.9538 C   0  0  0  0  0  0
    0.6190  -47.1105    5.5078 C   0  0  0  0  0  0
    0.5185  -46.1052    6.6767 C   0  0  0  0  0  0
   -0.8733  -46.0603    7.3111 C   0  0  0  0  0  0
   -1.8462  -45.8053    6.2988 O   0  0  0  0  0  0
   -3.0927  -45.4497    6.7414 C   0  0  0  0  0  0
   -5.2110  -44.2144    6.3848 C   0  0  0  0  0  0
   -3.9240  -44.6060    5.9505 C   0  0  0  0  0  0
   -0.7713  -52.7284    6.9516 H   0  0  0  0  0  0
   -3.1941  -52.2824    6.5307 H   0  0  0  0  0  0
   -3.9405  -50.0238    5.7766 H   0  0  0  0  0  0
   -2.2799  -48.2054    5.4674 H   0  0  0  0  0  0
    1.5400  -46.9161    4.9555 H   0  0  0  0  0  0
   -0.1760  -46.9327    4.7927 H   0  0  0  0  0  0
    1.2614  -46.3181    7.4434 H   0  0  0  0  0  0
    0.7724  -45.1091    6.3071 H   0  0  0  0  0  0
   -1.1402  -47.0137    7.7396 H   0  0  0  0  0  0
   -0.8943  -45.3021    8.0982 H   0  0  0  0  0  0
   -3.5514  -44.2396    5.0034 H   0  0  0  0  0  0
   -3.5622  -45.9573    7.9616 C   0  0  0  0  0  0
   -5.8285  -43.5665    5.7840 H   0  0  0  0  0  0
   -4.8385  -45.6167    8.3819 C   0  0  0  0  0  0
   -5.6909  -44.7527    7.6091 C   0  0  0  0  0  0
   -6.9395  -44.4772    8.0374 N   0  0  0  0  0  0
   -7.3230  -45.0060    9.2242 C   0  0  0  0  0  0
   -6.5113  -45.7935   10.0698 C   0  0  0  0  0  0
   -5.2446  -46.1516    9.6124 C   0  0  0  0  0  0
   -8.3071  -44.7098    9.5480 H   0  0  0  0  0  0
   -6.8370  -46.1213   11.0412 H   0  0  0  0  0  0
   -4.5944  -46.7869   10.2090 H   0  0  0  0  0  0
   -2.9765  -46.6177    8.5859 H   0  0  0  0  0  0
    1.2305  -50.6148    6.6042 N   0  0  0  0  0  0
    1.8856  -51.3390    6.8763 H   0  0  0  0  0  0
  1  2  2  0  0  0
  2  3  1  0  0  0
  2  4  1  0  0  0
  4 11  2  0  0  0
  4 42  1  0  0  0
  5  6  1  0  0  0
  5 10  2  0  0  0
  5 42  1  0  0  0
  6  7  2  0  0  0
  6 19  1  0  0  0
  7  8  1  0  0  0
  7 20  1  0  0  0
  8  9  2  0  0  0
  8 21  1  0  0  0
  9 10  1  0  0  0
  9 22  1  0  0  0
 10 11  1  0  0  0
 11 12  1  0  0  0
 12 23  1  0  0  0
 12 24  1  0  0  0
 12 13  1  0  0  0
 13 14  1  0  0  0
 13 25  1  0  0  0
 13 26  1  0  0  0
 14 15  1  0  0  0
 14 27  1  0  0  0
 14 28  1  0  0  0
 15 16  1  0  0  0
 16 18  2  0  0  0
 16 30  1  0  0  0
 17 18  1  0  0  0
 17 31  1  0  0  0
 17 33  2  0  0  0
 18 29  1  0  0  0
 30 32  2  0  0  0
 30 41  1  0  0  0
 32 33  1  0  0  0
 32 37  1  0  0  0
 33 34  1  0  0  0
 34 35  2  0  0  0
 35 36  1  0  0  0
 35 38  1  0  0  0
 36 37  2  0  0  0
 36 39  1  0  0  0
 37 40  1  0  0  0
 42 43  1  0  0  0
M  CHG  1   3  -1
M  END
> <s_m_entry_id>
93

> <s_m_entry_name>
MCL1_47.1

> <r_m_Molecular_weight>
345.38124

> <s_m_Source_Path>
C:\Users\yujiethinkpad\Desktop\05A\MCL1\original

> <s_m_Source_File>
MCL1_47.sdf

> <r_user_dG.exp>
-5.77553168796231

> <s_fepmapper_entryid>
33

> <i_fepmapper_bias>
0

> <i_fepmapper_affinity>
1

> <r_fepmapper_exp_dG>
-5.77553168796

> <i_fepmapper_unit>
1

> <i_m_Source_File_Index>
1

> <s_m_job_name>
glide-dock_SP_redock_1080

> <s_i_glide_gridfile>
glide-grid_MCL1

> <i_i_glide_lignum>
32

> <i_i_glide_rotatable_bonds>
6

> <r_i_docking_score>
-8.16164120201313

> <r_i_glide_ligand_efficiency>
-0.313909277000505

> <r_i_glide_ligand_efficiency_sa>
-0.929954997940635

> <r_i_glide_ligand_efficiency_ln>
-1.91673465576368

> <r_i_glide_gscore>
-8.16164120201313

> <r_i_glide_lipo>
-4.98624304289773

> <r_i_glide_hbond>
-0.2

> <r_i_glide_metal>
0

> <r_i_glide_rewards>
-1.81743468068776

> <r_i_glide_evdw>
-26.6543388366699

> <r_i_glide_ecoul>
-3.00210952758789

> <r_i_glide_erotb>
0.637114732374426

> <r_i_glide_esite>
-0.0120448398303855

> <r_i_glide_emodel>
-40.9720301791137

> <r_i_glide_energy>
-29.6564483642578

> <r_i_glide_einternal>
3.95834875106812

> <i_i_glide_confnum>
43

> <i_i_glide_posenum>
8

> <r_i_glide_eff_state_penalty>
0

> <r_glide_shape_similarity>
0.906337141990662

> <s_m_subgroup_title>
glide-dock_SP_redock_1080_lib1

> <s_m_subgroupid>
glide-dock_SP_redock_1080_lib1

> <b_m_subgroup_collapsed>
0

$$$$
