48
                    3D
 Schrodinger Suite 2021-2.
 42 45  0  0  1  0            999 V2000
    3.9644  -49.6731    6.6983 O   0  0  0  0  0  0
    3.0457  -48.8256    6.6200 C   0  0  0  0  0  0
    3.2594  -47.5965    6.7542 O   0  5  0  0  0  0
    1.6500  -49.2814    6.3953 C   0  0  0  0  0  0
   -0.0769  -50.7953    6.5228 C   0  0  0  0  0  0
   -0.9301  -51.8965    6.7736 C   0  0  0  0  0  0
   -2.3157  -51.7882    6.5089 C   0  0  0  0  0  0
   -2.8268  -50.6030    5.9431 C   0  0  0  0  0  0
   -1.9569  -49.5354    5.6417 C   0  0  0  0  0  0
   -0.5761  -49.5662    5.9901 C   0  0  0  0  0  0
    0.5254  -48.6251    5.9520 C   0  0  0  0  0  0
    0.4609  -47.2081    5.4964 C   0  0  0  0  0  0
   -0.2937  -46.2854    6.4586 C   0  0  0  0  0  0
   -1.8372  -46.4414    6.4149 C   0  0  0  0  0  0
   -2.6187  -45.3627    6.9249 O   0  0  0  0  0  0
   -3.6463  -45.6962    7.7836 C   0  0  0  0  0  0
   -5.6983  -46.2401    9.6800 C   0  0  0  0  0  0
   -4.4464  -46.8761    9.7997 C   0  0  0  0  0  0
   -3.4318  -46.6047    8.8586 C   0  0  0  0  0  0
   -0.5251  -52.8067    7.1862 H   0  0  0  0  0  0
   -2.9771  -52.6159    6.7243 H   0  0  0  0  0  0
   -3.8793  -50.5217    5.7035 H   0  0  0  0  0  0
   -2.3759  -48.6785    5.1427 H   0  0  0  0  0  0
    1.4540  -46.8069    5.2973 H   0  0  0  0  0  0
   -0.0405  -47.1686    4.5343 H   0  0  0  0  0  0
    0.1256  -46.2104    7.4607 H   0  0  0  0  0  0
   -0.0140  -45.4032    5.9600 H   0  0  0  0  0  0
   -2.1600  -46.5487    5.3777 H   0  0  0  0  0  0
   -2.1009  -47.3759    6.8971 H   0  0  0  0  0  0
   -2.4591  -47.0450    9.0108 H   0  0  0  0  0  0
   -4.2497  -47.5604   10.6112 H   0  0  0  0  0  0
   -6.4874  -46.4485   10.3864 H   0  0  0  0  0  0
    1.2934  -50.5979    6.6879 N   0  0  0  0  0  0
    1.9832  -51.2587    7.0283 H   0  0  0  0  0  0
   -6.8823  -44.2031    6.8852 C   0  0  0  0  0  0
   -7.0949  -44.7731    8.1371 N   0  0  0  0  0  0
   -5.9388  -45.3980    8.5748 C   0  0  0  0  0  0
   -4.9312  -45.0934    7.5953 C   0  0  0  0  0  0
   -5.5354  -44.2170    6.6036 C   0  0  0  0  0  0
   -7.9998  -44.7978    8.5968 H   0  0  0  0  0  0
   -5.0393  -43.7984    5.7372 H   0  0  0  0  0  0
   -7.6939  -43.7301    6.3507 H   0  0  0  0  0  0
  1  2  2  0  0  0
  2  3  1  0  0  0
  2  4  1  0  0  0
  4 11  2  0  0  0
  4 33  1  0  0  0
  5  6  1  0  0  0
  5 10  2  0  0  0
  5 33  1  0  0  0
  6  7  2  0  0  0
  6 20  1  0  0  0
  7  8  1  0  0  0
  7 21  1  0  0  0
  8  9  2  0  0  0
  8 22  1  0  0  0
  9 10  1  0  0  0
  9 23  1  0  0  0
 10 11  1  0  0  0
 11 12  1  0  0  0
 12 24  1  0  0  0
 12 25  1  0  0  0
 12 13  1  0  0  0
 13 14  1  0  0  0
 13 26  1  0  0  0
 13 27  1  0  0  0
 14 15  1  0  0  0
 14 28  1  0  0  0
 14 29  1  0  0  0
 15 16  1  0  0  0
 16 19  2  0  0  0
 16 38  1  0  0  0
 17 18  2  0  0  0
 17 32  1  0  0  0
 17 37  1  0  0  0
 18 19  1  0  0  0
 18 31  1  0  0  0
 19 30  1  0  0  0
 33 34  1  0  0  0
 35 36  1  0  0  0
 35 39  2  0  0  0
 35 42  1  0  0  0
 36 37  1  0  0  0
 36 40  1  0  0  0
 37 38  2  0  0  0
 38 39  1  0  0  0
 39 41  1  0  0  0
M  CHG  1   3  -1
M  END
> <s_m_entry_id>
101

> <s_m_entry_name>
MCL1_48.1

> <r_m_Molecular_weight>
333.37009

> <s_m_Source_Path>
C:\Users\yujiethinkpad\Desktop\05A\MCL1\original

> <s_m_Source_File>
MCL1_48.sdf

> <r_user_dG.exp>
-6.6626190630157

> <s_fepmapper_entryid>
3

> <i_fepmapper_bias>
0

> <i_fepmapper_affinity>
1

> <r_fepmapper_exp_dG>
-6.66261906302

> <i_fepmapper_unit>
1

> <i_m_Source_File_Index>
1

> <s_m_job_name>
glide-dock_SP_redock_1080

> <s_i_glide_gridfile>
glide-grid_MCL1

> <i_i_glide_lignum>
33

> <i_i_glide_rotatable_bonds>
6

> <r_i_docking_score>
-7.76624396034176

> <r_i_glide_ligand_efficiency>
-0.31064975841367

> <r_i_glide_ligand_efficiency_sa>
-0.908345402998496

> <r_i_glide_ligand_efficiency_ln>
-1.84083255415188

> <r_i_glide_gscore>
-7.76624396034176

> <r_i_glide_lipo>
-4.73627804546826

> <r_i_glide_hbond>
-0.2

> <r_i_glide_metal>
0

> <r_i_glide_rewards>
-1.53617786363636

> <r_i_glide_evdw>
-31.6682167053223

> <r_i_glide_ecoul>
-2.49771308898926

> <r_i_glide_erotb>
0.678363432142764

> <r_i_glide_esite>
-0.0140836847653937

> <r_i_glide_emodel>
-43.8231887653143

> <r_i_glide_energy>
-34.1659297943115

> <r_i_glide_einternal>
4.57946586608887

> <i_i_glide_confnum>
36

> <i_i_glide_posenum>
119

> <r_i_glide_eff_state_penalty>
0

> <r_glide_shape_similarity>
0.88342297077179

> <s_m_subgroup_title>
glide-dock_SP_redock_1080_lib1

> <s_m_subgroupid>
glide-dock_SP_redock_1080_lib1

> <b_m_subgroup_collapsed>
0

$$$$
