50
                    3D
 Schrodinger Suite 2021-2.
 44 46  0  0  1  0            999 V2000
    3.2601  -47.4991    6.7539 O   0  0  0  0  0  0
    3.1302  -48.7264    6.5353 C   0  0  0  0  0  0
    4.0951  -49.5245    6.5264 O   0  5  0  0  0  0
    1.7640  -49.2332    6.3389 C   0  0  0  0  0  0
    0.1244  -50.8062    6.5306 C   0  0  0  0  0  0
   -0.6508  -51.9556    6.8053 C   0  0  0  0  0  0
   -2.0524  -51.9186    6.6315 C   0  0  0  0  0  0
   -2.6628  -50.7424    6.1560 C   0  0  0  0  0  0
   -1.8670  -49.6115    5.8643 C   0  0  0  0  0  0
   -0.4607  -49.5804    6.0756 C   0  0  0  0  0  0
    0.6042  -48.5988    5.9517 C   0  0  0  0  0  0
    0.5400  -47.1504    5.5222 C   0  0  0  0  0  0
    0.3971  -46.1782    6.7076 C   0  0  0  0  0  0
   -0.9849  -46.2792    7.3863 C   0  0  0  0  0  0
   -1.9410  -45.7926    6.4712 O   0  0  0  0  0  0
   -3.1878  -45.4220    6.9269 C   0  0  0  0  0  0
   -3.9421  -44.6099    6.0445 C   0  0  0  0  0  0
   -5.2666  -44.2079    6.3567 C   0  0  0  0  0  0
   -6.0909  -43.4539    5.3045 C   0  0  0  0  0  0
   -5.8271  -44.6418    7.5914 C   0  0  0  0  0  0
   -7.4597  -44.2109    7.9609 Cl  0  0  0  0  0  0
   -5.0816  -45.4702    8.4852 C   0  0  0  0  0  0
   -5.6948  -45.9691    9.7906 C   0  0  0  0  0  0
   -3.7582  -45.8626    8.1508 C   0  0  0  0  0  0
   -0.1585  -52.8601    7.1362 H   0  0  0  0  0  0
   -2.6508  -52.7847    6.8664 H   0  0  0  0  0  0
   -3.7323  -50.7093    6.0012 H   0  0  0  0  0  0
   -2.6185  -48.2538    5.1552 Cl  0  0  0  0  0  0
   -0.2453  -46.9978    4.7803 H   0  0  0  0  0  0
    1.4456  -46.8908    4.9769 H   0  0  0  0  0  0
    0.5835  -45.1640    6.3523 H   0  0  0  0  0  0
    1.1575  -46.4012    7.4572 H   0  0  0  0  0  0
   -0.9994  -45.7401    8.3407 H   0  0  0  0  0  0
   -1.2442  -47.3260    7.5488 H   0  0  0  0  0  0
   -3.5126  -44.3325    5.0924 H   0  0  0  0  0  0
   -5.5702  -43.4709    4.3501 H   0  0  0  0  0  0
   -6.2636  -42.4070    5.5505 H   0  0  0  0  0  0
   -7.0588  -43.9389    5.1698 H   0  0  0  0  0  0
   -5.0180  -46.6075   10.3471 H   0  0  0  0  0  0
   -5.9577  -45.1237   10.4262 H   0  0  0  0  0  0
   -6.6090  -46.5296    9.5995 H   0  0  0  0  0  0
   -3.2069  -46.5178    8.8067 H   0  0  0  0  0  0
    1.4893  -50.5671    6.5959 N   0  0  0  0  0  0
    2.2267  -51.2119    6.8573 H   0  0  0  0  0  0
  1  2  2  0  0  0
  2  3  1  0  0  0
  2  4  1  0  0  0
  4 11  2  0  0  0
  4 43  1  0  0  0
  5  6  1  0  0  0
  5 10  2  0  0  0
  5 43  1  0  0  0
  6  7  2  0  0  0
  6 25  1  0  0  0
  7  8  1  0  0  0
  7 26  1  0  0  0
  8  9  2  0  0  0
  8 27  1  0  0  0
  9 10  1  0  0  0
  9 28  1  0  0  0
 10 11  1  0  0  0
 11 12  1  0  0  0
 12 29  1  0  0  0
 12 30  1  0  0  0
 12 13  1  0  0  0
 13 14  1  0  0  0
 13 31  1  0  0  0
 13 32  1  0  0  0
 14 15  1  0  0  0
 14 33  1  0  0  0
 14 34  1  0  0  0
 15 16  1  0  0  0
 16 17  1  0  0  0
 16 24  2  0  0  0
 17 18  2  0  0  0
 17 35  1  0  0  0
 18 19  1  0  0  0
 18 20  1  0  0  0
 19 36  1  0  0  0
 19 37  1  0  0  0
 19 38  1  0  0  0
 20 21  1  0  0  0
 20 22  2  0  0  0
 22 23  1  0  0  0
 22 24  1  0  0  0
 23 39  1  0  0  0
 23 40  1  0  0  0
 23 41  1  0  0  0
 24 42  1  0  0  0
 43 44  1  0  0  0
M  CHG  1   3  -1
M  END
> <s_m_entry_id>
94

> <s_m_entry_name>
MCL1_50.1

> <r_m_Molecular_weight>
391.27736

> <s_m_Source_Path>
C:\Users\yujiethinkpad\Desktop\05A\MCL1\original

> <s_m_Source_File>
MCL1_50.sdf

> <r_user_dG.exp>
-9.32829709690352

> <s_fepmapper_entryid>
13

> <i_fepmapper_bias>
0

> <i_fepmapper_affinity>
1

> <r_fepmapper_exp_dG>
-9.3282970969

> <i_fepmapper_unit>
1

> <i_m_Source_File_Index>
1

> <s_m_job_name>
glide-dock_SP_redock_1080

> <s_i_glide_gridfile>
glide-grid_MCL1

> <i_i_glide_lignum>
35

> <i_i_glide_rotatable_bonds>
6

> <r_i_docking_score>
-8.15116281527355

> <r_i_glide_ligand_efficiency>
-0.313506262125906

> <r_i_glide_ligand_efficiency_sa>
-0.928761067960423

> <r_i_glide_ligand_efficiency_ln>
-1.91427384102028

> <r_i_glide_gscore>
-8.15116281527355

> <r_i_glide_lipo>
-5.14129008368506

> <r_i_glide_hbond>
-0.2

> <r_i_glide_metal>
0

> <r_i_glide_rewards>
-1.61081627164907

> <r_i_glide_evdw>
-28.160270690918

> <r_i_glide_ecoul>
-2.69527459144592

> <r_i_glide_erotb>
0.637301348502223

> <r_i_glide_esite>
-0.0240530851788605

> <r_i_glide_emodel>
-43.0640264667199

> <r_i_glide_energy>
-30.8555452823639

> <r_i_glide_einternal>
4.40342330932617

> <i_i_glide_confnum>
264

> <i_i_glide_posenum>
269

> <r_i_glide_eff_state_penalty>
0

> <r_glide_shape_similarity>
0.914186000823975

> <s_m_subgroup_title>
glide-dock_SP_redock_1080_lib1

> <s_m_subgroupid>
glide-dock_SP_redock_1080_lib1

> <b_m_subgroup_collapsed>
0

$$$$
