62
                    3D
 Schrodinger Suite 2021-2.
 43 46  0  0  1  0            999 V2000
    1.8356  -46.6064    5.7983 O   0  0  0  0  0  0
    2.1574  -47.6831    6.3505 C   0  0  0  0  0  0
    3.2594  -47.8066    6.9377 O   0  5  0  0  0  0
    1.1850  -48.8108    6.3472 C   0  0  0  0  0  0
    1.8372  -50.3281    6.9013 S   0  0  0  0  0  0
    0.2554  -51.0809    6.7969 C   0  0  0  0  0  0
   -0.0470  -52.4080    7.1650 C   0  0  0  0  0  0
   -1.3647  -52.8903    7.0454 C   0  0  0  0  0  0
   -2.3676  -52.0425    6.5402 C   0  0  0  0  0  0
   -2.0640  -50.7202    6.1578 C   0  0  0  0  0  0
   -0.7393  -50.1790    6.2774 C   0  0  0  0  0  0
   -0.1454  -48.8819    5.9493 C   0  0  0  0  0  0
   -0.8576  -47.7952    5.1682 C   0  0  0  0  0  0
   -1.8744  -46.9441    5.9334 C   0  0  0  0  0  0
   -1.3616  -46.0415    7.0531 C   0  0  0  0  0  0
   -2.4472  -45.1466    7.2688 O   0  0  0  0  0  0
   -3.5995  -45.6088    7.8792 C   0  0  0  0  0  0
   -5.9068  -46.0949    9.4546 C   0  0  0  0  0  0
   -4.7356  -46.8470    9.6668 C   0  0  0  0  0  0
   -3.5862  -46.6060    8.8910 C   0  0  0  0  0  0
    0.7346  -53.0471    7.5504 H   0  0  0  0  0  0
   -1.6015  -53.9041    7.3343 H   0  0  0  0  0  0
   -3.3783  -52.4127    6.4415 H   0  0  0  0  0  0
   -3.3919  -49.8110    5.5512 Cl  0  0  0  0  0  0
   -0.1644  -47.1345    4.6565 H   0  0  0  0  0  0
   -1.4091  -48.2580    4.3490 H   0  0  0  0  0  0
   -2.3748  -46.3177    5.1945 H   0  0  0  0  0  0
   -2.6529  -47.5623    6.3571 H   0  0  0  0  0  0
   -1.0971  -46.6027    7.9406 H   0  0  0  0  0  0
   -0.4716  -45.4928    6.7506 H   0  0  0  0  0  0
   -2.6940  -47.1477    9.1496 H   0  0  0  0  0  0
   -5.9801  -45.2173    8.3481 C   0  0  0  0  0  0
   -4.8394  -45.0062    7.5266 C   0  0  0  0  0  0
   -4.9621  -44.2063    6.3506 C   0  0  0  0  0  0
   -6.2293  -43.7534    5.9305 C   0  0  0  0  0  0
   -7.3583  -43.9516    6.7606 C   0  0  0  0  0  0
   -7.2178  -44.6259    7.9984 C   0  0  0  0  0  0
   -4.1073  -44.0354    5.7131 H   0  0  0  0  0  0
   -6.3259  -43.2169    4.9978 H   0  0  0  0  0  0
   -8.3224  -43.5720    6.4578 H   0  0  0  0  0  0
   -8.0821  -44.7829    8.6253 H   0  0  0  0  0  0
   -4.6978  -47.6027   10.4354 H   0  0  0  0  0  0
   -6.7719  -46.2780   10.0721 H   0  0  0  0  0  0
  1  2  2  0  0  0
  2  3  1  0  0  0
  2  4  1  0  0  0
  4  5  1  0  0  0
  4 12  2  0  0  0
  5  6  1  0  0  0
  6  7  1  0  0  0
  6 11  2  0  0  0
  7  8  2  0  0  0
  7 21  1  0  0  0
  8  9  1  0  0  0
  8 22  1  0  0  0
  9 10  2  0  0  0
  9 23  1  0  0  0
 10 11  1  0  0  0
 10 24  1  0  0  0
 11 12  1  0  0  0
 12 13  1  0  0  0
 13 25  1  0  0  0
 13 26  1  0  0  0
 13 14  1  0  0  0
 14 15  1  0  0  0
 14 27  1  0  0  0
 14 28  1  0  0  0
 15 16  1  0  0  0
 15 29  1  0  0  0
 15 30  1  0  0  0
 16 17  1  0  0  0
 17 20  2  0  0  0
 17 33  1  0  0  0
 18 19  2  0  0  0
 18 32  1  0  0  0
 18 43  1  0  0  0
 19 20  1  0  0  0
 19 42  1  0  0  0
 20 31  1  0  0  0
 32 33  2  0  0  0
 32 37  1  0  0  0
 33 34  1  0  0  0
 34 35  2  0  0  0
 34 38  1  0  0  0
 35 36  1  0  0  0
 35 39  1  0  0  0
 36 37  2  0  0  0
 36 40  1  0  0  0
 37 41  1  0  0  0
M  CHG  1   3  -1
M  END
> <s_m_entry_id>
70

> <s_m_entry_name>
MCL1_62.1

> <r_m_Molecular_weight>
395.88802

> <s_m_Source_Path>
C:\Users\yujiethinkpad\Desktop\05A\MCL1\original

> <s_m_Source_File>
MCL1_62.sdf

> <r_user_dG.exp>
-7.95565704541698

> <s_fepmapper_entryid>
24

> <i_fepmapper_bias>
0

> <i_fepmapper_affinity>
1

> <r_fepmapper_exp_dG>
-7.95565704542

> <i_fepmapper_unit>
1

> <i_m_Source_File_Index>
1

> <s_m_job_name>
glide-dock_SP_redock_1080

> <s_i_glide_gridfile>
glide-grid_MCL1

> <i_i_glide_lignum>
3

> <i_i_glide_rotatable_bonds>
6

> <r_i_docking_score>
-9.11875364502626

> <r_i_glide_ligand_efficiency>
-0.337731616482454

> <r_i_glide_ligand_efficiency_sa>
-1.01319484833425

> <r_i_glide_ligand_efficiency_ln>
-2.122695514159

> <r_i_glide_gscore>
-9.11875364502626

> <r_i_glide_lipo>
-5.42711515809648

> <r_i_glide_hbond>
-0.2

> <r_i_glide_metal>
0

> <r_i_glide_rewards>
-2.01244852610584

> <r_i_glide_evdw>
-31.6138324737549

> <r_i_glide_ecoul>
-2.65141916275024

> <r_i_glide_erotb>
0.499214537276342

> <r_i_glide_esite>
0

> <r_i_glide_emodel>
-33.8367047424261

> <r_i_glide_energy>
-34.2652516365051

> <r_i_glide_einternal>
6.60661363601685

> <i_i_glide_confnum>
32

> <i_i_glide_posenum>
148

> <r_i_glide_eff_state_penalty>
0

> <r_glide_shape_similarity>
0.796513497829437

> <s_m_subgroup_title>
glide-dock_SP_redock_1080_lib1

> <s_m_subgroupid>
glide-dock_SP_redock_1080_lib1

> <b_m_subgroup_collapsed>
0

$$$$
