CAT-13i
                    3D
 Schrodinger Suite 2021-2.
 46 49  0  0  1  0            999 V2000
   11.8903   -1.9707    1.3002 C   0  0  0  0  0  0
   12.7923   -2.3086    0.2030 N   0  0  0  0  0  0
   12.5149   -2.1605   -1.0876 C   0  0  0  0  0  0
   11.2606   -1.6348   -1.6186 N   0  0  0  0  0  0
   13.5487   -2.5619   -1.8262 N   0  3  0  0  0  0
   14.6620   -3.0379   -1.0056 C   0  0  2  0  0  0
   15.9004   -2.2171   -1.2120 C   0  0  0  0  0  0
   15.6224   -1.1361   -2.2142 C   0  0  0  0  0  0
   16.6974   -0.1123   -2.5007 C   0  0  0  0  0  0
   16.3560   -1.1599   -3.5360 C   0  0  0  0  0  0
   14.9781   -4.4796   -1.2734 C   0  0  0  0  0  0
   16.2383   -4.8406   -1.7352 C   0  0  0  0  0  0
   16.5311   -6.1763   -1.9833 C   0  0  0  0  0  0
   15.5638   -7.1512   -1.7696 C   0  0  0  0  0  0
   14.3036   -6.7902   -1.3078 C   0  0  0  0  0  0
   13.2596   -7.8423   -1.0772 C   0  0  0  0  0  0
   13.2502   -9.0055   -1.8410 C   0  0  0  0  0  0
   12.2794   -9.9808   -1.6245 C   0  0  0  0  0  0
   11.3094   -9.8014   -0.6424 C   0  0  0  0  0  0
   11.3181   -8.6392    0.1214 C   0  0  0  0  0  0
   10.1214   -8.4039    1.3424 Cl  0  0  0  0  0  0
   12.2887   -7.6650   -0.0956 C   0  0  0  0  0  0
   14.0108   -5.4544   -1.0597 C   0  0  0  0  0  0
   14.1179   -2.8542    0.3955 C   0  0  0  0  0  0
   14.6506   -3.1006    1.4765 O   0  0  0  0  0  0
   12.3748   -2.1939    2.2507 H   0  0  0  0  0  0
   11.6472   -0.9090    1.2568 H   0  0  0  0  0  0
   10.9755   -2.5568    1.2121 H   0  0  0  0  0  0
   11.1261   -1.5523   -2.6414 H   0  0  0  0  0  0
   13.5686   -2.5425   -2.8394 H   0  0  0  0  0  0
   16.7028   -2.8563   -1.5802 H   0  0  0  0  0  0
   16.1997   -1.7668   -0.2656 H   0  0  0  0  0  0
   14.5790   -0.8142   -2.1959 H   0  0  0  0  0  0
   16.4039    0.9239   -2.6823 H   0  0  0  0  0  0
   17.6497   -0.1851   -1.9710 H   0  0  0  0  0  0
   17.0701   -1.9635   -3.7285 H   0  0  0  0  0  0
   15.8243   -0.8546   -4.4398 H   0  0  0  0  0  0
   16.9914   -4.0816   -1.9015 H   0  0  0  0  0  0
   17.5123   -6.4574   -2.3428 H   0  0  0  0  0  0
   15.7918   -8.1911   -1.9628 H   0  0  0  0  0  0
   14.0006   -9.1531   -2.6067 H   0  0  0  0  0  0
   12.2782  -10.8824   -2.2220 H   0  0  0  0  0  0
   10.5556  -10.5571   -0.4733 H   0  0  0  0  0  0
   12.2867   -6.7654    0.5032 H   0  0  0  0  0  0
   13.0296   -5.1734   -0.7002 H   0  0  0  0  0  0
   10.5061   -1.3448   -0.9722 H   0  0  0  0  0  0
  1  2  1  0  0  0
  1 26  1  0  0  0
  1 27  1  0  0  0
  1 28  1  0  0  0
  2  3  1  0  0  0
  2 24  1  0  0  0
  3  4  1  0  0  0
  3  5  2  0  0  0
  4 29  1  0  0  0
  4 46  1  0  0  0
  5  6  1  0  0  0
  5 30  1  0  0  0
  6  7  1  0  0  0
  6 11  1  0  0  0
  6 24  1  0  0  0
  7  8  1  0  0  0
  7 31  1  0  0  0
  7 32  1  0  0  0
  8  9  1  0  0  0
  8 10  1  0  0  0
  8 33  1  0  0  0
  9 10  1  0  0  0
  9 34  1  0  0  0
  9 35  1  0  0  0
 10 36  1  0  0  0
 10 37  1  0  0  0
 11 12  2  0  0  0
 11 23  1  0  0  0
 12 13  1  0  0  0
 12 38  1  0  0  0
 13 14  2  0  0  0
 13 39  1  0  0  0
 14 15  1  0  0  0
 14 40  1  0  0  0
 15 16  1  0  0  0
 15 23  2  0  0  0
 16 17  2  0  0  0
 16 22  1  0  0  0
 17 18  1  0  0  0
 17 41  1  0  0  0
 18 19  2  0  0  0
 18 42  1  0  0  0
 19 20  1  0  0  0
 19 43  1  0  0  0
 20 21  1  0  0  0
 20 22  2  0  0  0
 22 44  1  0  0  0
 23 45  1  0  0  0
 24 25  2  0  0  0
M  CHG  1   5   1
M  END
> <s_m_entry_id>
1302

> <s_m_entry_name>
Bace_CAT-13i.1

> <s_m_Source_Path>
C:\Users\yujiethinkpad\Desktop\05A\BACE

> <s_m_Source_File>
Bace_CAT-13i.sdf

> <i_m_Source_File_Index>
1

> <s_m_job_name>
align_ligands_9

> <r_user_dG.exp>
-9.273

> <r_m_Molecular_weight>
354.86287

> <i_phase_Input_Structure_Number>
27

> <i_phase_Structure_Number>
27

> <i_phase_Reference_Structure>
36

> <s_phase_Core_SMARTS>
A=A1AA=[A]A1a2aa(aaa2)-a3aaaaa3

> <r_phase_Similarity_to_Reference>
0.781915409007751

> <s_phase_Alignment_Method>
flexible least-squares core

> <s_phase_Alignment_Reason>
stereochemistry change

> <s_m_subgroup_title>
align_ligands_9

> <s_m_subgroupid>
align_ligands_9

> <b_m_subgroup_collapsed>
0

$$$$
