CAT-17h
                    3D
 Schrodinger Suite 2021-2.
 42 45  0  0  1  0            999 V2000
   12.8316   -1.7612    1.9183 C   0  0  0  0  0  0
   13.1611   -2.2361    0.5776 N   0  0  0  0  0  0
   12.2915   -2.3860   -0.4152 C   0  0  0  0  0  0
   10.8626   -2.0996   -0.3260 N   0  0  0  0  0  0
   12.9139   -2.8359   -1.5040 N   0  3  0  0  0  0
   14.3470   -3.0266   -1.2817 C   0  0  1  0  0  0
   14.7569   -4.4573   -1.4694 C   0  0  0  0  0  0
   16.0376   -4.7603   -1.9163 C   0  0  0  0  0  0
   16.4174   -6.0859   -2.0902 C   0  0  0  0  0  0
   15.5165   -7.1084   -1.8173 C   0  0  0  0  0  0
   14.2358   -6.8053   -1.3705 C   0  0  0  0  0  0
   13.2635   -7.9089   -1.0760 C   0  0  0  0  0  0
   12.2785   -7.7504   -0.1015 C   0  0  0  0  0  0
   11.3716   -8.7134    0.2084 N   0  0  0  0  0  0
   11.4426   -9.8848   -0.4765 C   0  0  0  0  0  0
   12.3998  -10.1167   -1.4649 C   0  0  0  0  0  0
   12.4438  -11.6251   -2.3038 Cl  0  0  0  0  0  0
   13.3228   -9.1165   -1.7695 C   0  0  0  0  0  0
   13.8560   -5.4798   -1.1966 C   0  0  0  0  0  0
   15.1736   -2.1567   -2.1818 C   0  0  0  0  0  0
   14.5700   -0.8778   -2.7166 C   0  0  0  0  0  0
   15.6546   -0.8198   -1.6648 C   0  0  0  0  0  0
   14.4972   -2.6058    0.1651 C   0  0  0  0  0  0
   15.5077   -2.5719    0.8656 O   0  0  0  0  0  0
   13.7353   -1.7364    2.5272 H   0  0  0  0  0  0
   12.4085   -0.7587    1.8550 H   0  0  0  0  0  0
   12.1050   -2.4341    2.3738 H   0  0  0  0  0  0
   10.2535   -2.2445   -1.1501 H   0  0  0  0  0  0
   12.4545   -3.0262   -2.3872 H   0  0  0  0  0  0
   16.7390   -3.9642   -2.1287 H   0  0  0  0  0  0
   17.4144   -6.3218   -2.4381 H   0  0  0  0  0  0
   15.8121   -8.1404   -1.9527 H   0  0  0  0  0  0
   12.2097   -6.8218    0.4527 H   0  0  0  0  0  0
   10.7189  -10.6501   -0.2275 H   0  0  0  0  0  0
   14.0731   -9.2745   -2.5316 H   0  0  0  0  0  0
   12.8589   -5.2438   -0.8487 H   0  0  0  0  0  0
   15.8323   -2.7399   -2.8289 H   0  0  0  0  0  0
   14.8078   -0.5688   -3.7368 H   0  0  0  0  0  0
   13.5473   -0.6189   -2.4343 H   0  0  0  0  0  0
   15.3884   -0.5206   -0.6487 H   0  0  0  0  0  0
   16.6489   -0.4704   -1.9512 H   0  0  0  0  0  0
   10.4589   -1.7517    0.5613 H   0  0  0  0  0  0
  1  2  1  0  0  0
  1 25  1  0  0  0
  1 26  1  0  0  0
  1 27  1  0  0  0
  2  3  1  0  0  0
  2 23  1  0  0  0
  3  4  1  0  0  0
  3  5  2  0  0  0
  4 28  1  0  0  0
  4 42  1  0  0  0
  5  6  1  0  0  0
  5 29  1  0  0  0
  6  7  1  0  0  0
  6 20  1  0  0  0
  6 23  1  0  0  0
  7  8  2  0  0  0
  7 19  1  0  0  0
  8  9  1  0  0  0
  8 30  1  0  0  0
  9 10  2  0  0  0
  9 31  1  0  0  0
 10 11  1  0  0  0
 10 32  1  0  0  0
 11 12  1  0  0  0
 11 19  2  0  0  0
 12 13  2  0  0  0
 12 18  1  0  0  0
 13 14  1  0  0  0
 13 33  1  0  0  0
 14 15  2  0  0  0
 15 16  1  0  0  0
 15 34  1  0  0  0
 16 17  1  0  0  0
 16 18  2  0  0  0
 18 35  1  0  0  0
 19 36  1  0  0  0
 20 21  1  0  0  0
 20 22  1  0  0  0
 20 37  1  0  0  0
 21 22  1  0  0  0
 21 38  1  0  0  0
 21 39  1  0  0  0
 22 40  1  0  0  0
 22 41  1  0  0  0
 23 24  2  0  0  0
M  CHG  1   5   1
M  END
> <s_m_entry_id>
1280

> <s_m_entry_name>
Bace_CAT-17h.1

> <s_m_Source_Path>
C:\Users\yujiethinkpad\Desktop\05A\BACE

> <s_m_Source_File>
Bace_CAT-17h.sdf

> <i_m_Source_File_Index>
1

> <s_m_job_name>
align_ligands_9

> <r_user_dG.exp>
-10.333

> <r_m_Molecular_weight>
341.82336

> <i_phase_Input_Structure_Number>
5

> <i_phase_Structure_Number>
5

> <i_phase_Reference_Structure>
36

> <s_phase_Core_SMARTS>
A=A1AA=[A]A1a2aa(aaa2)-a3aaaaa3

> <r_phase_Similarity_to_Reference>
0.720544734658875

> <s_phase_Alignment_Method>
flexible least-squares core

> <s_phase_Alignment_Reason>
stereochemistry change

> <s_m_subgroup_title>
align_ligands_9

> <s_m_subgroupid>
align_ligands_9

> <b_m_subgroup_collapsed>
0

$$$$
