CAT-4j
                    3D
 Schrodinger Suite 2021-2.
 45 48  0  0  1  0            999 V2000
   13.9855   -1.4589    2.5129 C   0  0  0  0  0  0
   13.8676   -2.0276    1.1733 N   0  0  0  0  0  0
   12.7231   -2.2962    0.5551 C   0  0  0  0  0  0
   11.3952   -2.0657    1.1163 N   0  0  0  0  0  0
   12.9644   -2.8066   -0.6518 N   0  3  0  0  0  0
   14.3964   -2.9160   -0.9290 C   0  0  2  0  0  0
   14.8023   -2.0880   -2.1120 C   0  0  0  0  0  0
   15.2026   -0.7692   -1.9327 C   0  0  0  0  0  0
   15.5787   -0.0020   -3.0289 C   0  0  0  0  0  0
   15.5545   -0.5536   -4.3044 C   0  0  0  0  0  0
   15.1542   -1.8724   -4.4836 C   0  0  0  0  0  0
   14.7781   -2.6396   -3.3875 C   0  0  0  0  0  0
   14.8150   -4.3381   -1.1579 C   0  0  0  0  0  0
   16.1440   -4.6352   -1.4359 C   0  0  0  0  0  0
   16.5318   -5.9528   -1.6481 C   0  0  0  0  0  0
   15.5907   -6.9734   -1.5822 C   0  0  0  0  0  0
   14.2617   -6.6763   -1.3042 C   0  0  0  0  0  0
   13.2460   -7.7778   -1.2332 C   0  0  0  0  0  0
   13.4039   -8.9315   -2.0009 C   0  0  0  0  0  0
   12.4424   -9.9357   -1.9116 C   0  0  0  0  0  0
   11.3594   -9.7430   -1.0550 C   0  0  0  0  0  0
   11.1934   -8.6245   -0.3018 N   0  0  0  0  0  0
   12.1370   -7.6542   -0.3980 C   0  0  0  0  0  0
   13.8739   -5.3587   -1.0921 C   0  0  0  0  0  0
   15.0037   -2.3716    0.3469 C   0  0  0  0  0  0
   16.1881   -2.2364    0.6499 O   0  0  0  0  0  0
   15.0391   -1.3449    2.7678 H   0  0  0  0  0  0
   13.4981   -0.4843    2.5380 H   0  0  0  0  0  0
   13.5073   -2.1230    3.2329 H   0  0  0  0  0  0
   10.5521   -2.3042    0.5653 H   0  0  0  0  0  0
   12.2445   -3.0886   -1.3073 H   0  0  0  0  0  0
   15.2214   -0.3397   -0.9397 H   0  0  0  0  0  0
   15.8903    1.0248   -2.8893 H   0  0  0  0  0  0
   15.8473    0.0437   -5.1578 H   0  0  0  0  0  0
   15.1353   -2.3018   -5.4766 H   0  0  0  0  0  0
   14.4665   -3.6664   -3.5271 H   0  0  0  0  0  0
   16.8766   -3.8406   -1.4872 H   0  0  0  0  0  0
   17.5664   -6.1841   -1.8645 H   0  0  0  0  0  0
   15.8926   -7.9992   -1.7474 H   0  0  0  0  0  0
   14.2583   -9.0447   -2.6544 H   0  0  0  0  0  0
   12.5325  -10.8437   -2.4922 H   0  0  0  0  0  0
   10.5968  -10.5074   -0.9658 H   0  0  0  0  0  0
   11.9981   -6.7651    0.2055 H   0  0  0  0  0  0
   12.8393   -5.1274   -0.8756 H   0  0  0  0  0  0
   11.2968   -1.6640    2.0651 H   0  0  0  0  0  0
  1  2  1  0  0  0
  1 27  1  0  0  0
  1 28  1  0  0  0
  1 29  1  0  0  0
  2  3  1  0  0  0
  2 25  1  0  0  0
  3  4  1  0  0  0
  3  5  2  0  0  0
  4 30  1  0  0  0
  4 45  1  0  0  0
  5  6  1  0  0  0
  5 31  1  0  0  0
  6  7  1  0  0  0
  6 13  1  0  0  0
  6 25  1  0  0  0
  7  8  2  0  0  0
  7 12  1  0  0  0
  8  9  1  0  0  0
  8 32  1  0  0  0
  9 10  2  0  0  0
  9 33  1  0  0  0
 10 11  1  0  0  0
 10 34  1  0  0  0
 11 12  2  0  0  0
 11 35  1  0  0  0
 12 36  1  0  0  0
 13 14  2  0  0  0
 13 24  1  0  0  0
 14 15  1  0  0  0
 14 37  1  0  0  0
 15 16  2  0  0  0
 15 38  1  0  0  0
 16 17  1  0  0  0
 16 39  1  0  0  0
 17 18  1  0  0  0
 17 24  2  0  0  0
 18 19  2  0  0  0
 18 23  1  0  0  0
 19 20  1  0  0  0
 19 40  1  0  0  0
 20 21  2  0  0  0
 20 41  1  0  0  0
 21 22  1  0  0  0
 21 42  1  0  0  0
 22 23  2  0  0  0
 23 43  1  0  0  0
 24 44  1  0  0  0
 25 26  2  0  0  0
M  CHG  1   5   1
M  END
> <s_m_entry_id>
1287

> <s_m_entry_name>
Bace_CAT-4j.1

> <s_m_Source_Path>
C:\Users\yujiethinkpad\Desktop\05A\BACE

> <s_m_Source_File>
Bace_CAT-4j.sdf

> <i_m_Source_File_Index>
1

> <s_m_job_name>
align_ligands_9

> <r_user_dG.exp>
-9.023

> <r_m_Molecular_weight>
343.41178

> <i_phase_Input_Structure_Number>
12

> <i_phase_Structure_Number>
12

> <i_phase_Reference_Structure>
36

> <s_phase_Core_SMARTS>
a1aaaaa1A2(A(=A)AA=[A]2)a3aa(aaa3)-a4aaaaa4

> <r_phase_Similarity_to_Reference>
0.801783882017675

> <s_phase_Alignment_Method>
flexible least-squares core

> <s_phase_Alignment_Reason>
stereochemistry change

> <s_m_subgroup_title>
align_ligands_9

> <s_m_subgroupid>
align_ligands_9

> <b_m_subgroup_collapsed>
0

$$$$
