CAT-4m
                    3D
 Schrodinger Suite 2021-2.
 48 51  0  0  1  0            999 V2000
   10.2776   -8.7778    0.9216 C   0  0  0  0  0  0
   11.4591   -8.8522    0.0003 C   0  0  0  0  0  0
   11.7395  -10.0337   -0.6840 C   0  0  0  0  0  0
   12.7967  -10.1467   -1.5270 N   0  0  0  0  0  0
   13.5920   -9.0575   -1.6912 C   0  0  0  0  0  0
   13.3730   -7.8441   -1.0404 C   0  0  0  0  0  0
   14.2893   -6.6780   -1.2652 C   0  0  0  0  0  0
   15.6278   -6.8947   -1.5704 C   0  0  0  0  0  0
   16.4768   -5.8142   -1.7786 C   0  0  0  0  0  0
   15.9874   -4.5170   -1.6816 C   0  0  0  0  0  0
   14.6489   -4.3003   -1.3764 C   0  0  0  0  0  0
   14.1206   -2.9003   -1.2717 C   0  0  1  0  0  0
   14.9718   -1.9905   -2.1070 C   0  0  0  0  0  0
   15.7156   -0.9847   -1.5013 C   0  0  0  0  0  0
   16.5043   -0.1416   -2.2752 C   0  0  0  0  0  0
   16.5491   -0.3044   -3.6548 C   0  0  0  0  0  0
   15.8053   -1.3102   -4.2604 C   0  0  0  0  0  0
   15.0167   -2.1532   -3.4865 C   0  0  0  0  0  0
   12.7084   -2.8207   -1.6442 N   0  3  0  0  0  0
   11.9458   -2.3957   -0.6377 C   0  0  0  0  0  0
   10.4986   -2.2140   -0.7026 N   0  0  0  0  0  0
   12.6948   -2.1615    0.4340 N   0  0  0  0  0  0
   12.1950   -1.6848    1.7203 C   0  0  0  0  0  0
   14.0895   -2.4398    0.1705 C   0  0  0  0  0  0
   15.0169   -2.3169    0.9691 O   0  0  0  0  0  0
   13.7999   -5.3808   -1.1682 C   0  0  0  0  0  0
   12.2839   -7.7417   -0.1776 C   0  0  0  0  0  0
   10.2223   -7.7822    1.3618 H   0  0  0  0  0  0
    9.3654   -8.9778    0.3594 H   0  0  0  0  0  0
   10.3867   -9.5194    1.7129 H   0  0  0  0  0  0
   11.1096  -10.9062   -0.5579 H   0  0  0  0  0  0
   14.4314   -9.1653   -2.3678 H   0  0  0  0  0  0
   16.0089   -7.9046   -1.6459 H   0  0  0  0  0  0
   17.5189   -5.9829   -2.0163 H   0  0  0  0  0  0
   16.6484   -3.6758   -1.8438 H   0  0  0  0  0  0
   15.6807   -0.8580   -0.4273 H   0  0  0  0  0  0
   17.0833    0.6414   -1.8037 H   0  0  0  0  0  0
   17.1631    0.3520   -4.2573 H   0  0  0  0  0  0
   15.8403   -1.4368   -5.3345 H   0  0  0  0  0  0
   14.4376   -2.9362   -3.9580 H   0  0  0  0  0  0
   12.3578   -3.0626   -2.5640 H   0  0  0  0  0  0
    9.9902   -2.4205   -1.5801 H   0  0  0  0  0  0
   13.0266   -1.5806    2.4172 H   0  0  0  0  0  0
   11.7102   -0.7178    1.5860 H   0  0  0  0  0  0
   11.4750   -2.4000    2.1180 H   0  0  0  0  0  0
   12.7578   -5.2121   -0.9305 H   0  0  0  0  0  0
   12.0815   -6.8167    0.3452 H   0  0  0  0  0  0
    9.9812   -1.8787    0.1287 H   0  0  0  0  0  0
  1  2  1  0  0  0
  1 28  1  0  0  0
  1 29  1  0  0  0
  1 30  1  0  0  0
  2  3  2  0  0  0
  2 27  1  0  0  0
  3  4  1  0  0  0
  3 31  1  0  0  0
  4  5  2  0  0  0
  5  6  1  0  0  0
  5 32  1  0  0  0
  6  7  1  0  0  0
  6 27  2  0  0  0
  7  8  2  0  0  0
  7 26  1  0  0  0
  8  9  1  0  0  0
  8 33  1  0  0  0
  9 10  2  0  0  0
  9 34  1  0  0  0
 10 11  1  0  0  0
 10 35  1  0  0  0
 11 12  1  0  0  0
 11 26  2  0  0  0
 12 13  1  0  0  0
 12 19  1  0  0  0
 12 24  1  0  0  0
 13 14  2  0  0  0
 13 18  1  0  0  0
 14 15  1  0  0  0
 14 36  1  0  0  0
 15 16  2  0  0  0
 15 37  1  0  0  0
 16 17  1  0  0  0
 16 38  1  0  0  0
 17 18  2  0  0  0
 17 39  1  0  0  0
 18 40  1  0  0  0
 19 20  2  0  0  0
 19 41  1  0  0  0
 20 21  1  0  0  0
 20 22  1  0  0  0
 21 42  1  0  0  0
 21 48  1  0  0  0
 22 23  1  0  0  0
 22 24  1  0  0  0
 23 43  1  0  0  0
 23 44  1  0  0  0
 23 45  1  0  0  0
 24 25  2  0  0  0
 26 46  1  0  0  0
 27 47  1  0  0  0
M  CHG  1  19   1
M  END
> <s_m_entry_id>
1290

> <s_m_entry_name>
Bace_CAT-4m.1

> <s_m_Source_Path>
C:\Users\yujiethinkpad\Desktop\05A\BACE

> <s_m_Source_File>
Bace_CAT-4m.sdf

> <i_m_Source_File_Index>
1

> <s_m_job_name>
align_ligands_9

> <r_user_dG.exp>
-9.153

> <r_m_Molecular_weight>
357.43887

> <i_phase_Input_Structure_Number>
15

> <i_phase_Structure_Number>
15

> <i_phase_Reference_Structure>
36

> <s_phase_Core_SMARTS>
a1aaaaa1A2(A(=A)AA=[A]2)a3aa(aaa3)-a4aaaaa4

> <r_phase_Similarity_to_Reference>
0.771236600087753

> <s_phase_Alignment_Method>
flexible least-squares core

> <s_phase_Alignment_Reason>
stereochemistry change

> <s_m_subgroup_title>
align_ligands_9

> <s_m_subgroupid>
align_ligands_9

> <b_m_subgroup_collapsed>
0

$$$$
