CAT-4l
                    3D
 Schrodinger Suite 2021-2.
 44 47  0  0  1  0            999 V2000
   12.3012   -1.6999    1.7888 C   0  0  0  0  0  0
   12.7625   -2.1717    0.4865 N   0  0  0  0  0  0
   11.9834   -2.3916   -0.5666 C   0  0  0  0  0  0
   10.5368   -2.1965   -0.5920 N   0  0  0  0  0  0
   12.7153   -2.8161   -1.5959 N   0  3  0  0  0  0
   14.1361   -2.9109   -1.2615 C   0  0  2  0  0  0
   14.9732   -2.0027   -2.1126 C   0  0  0  0  0  0
   15.2291   -0.7014   -1.6969 C   0  0  0  0  0  0
   16.0047    0.1401   -2.4855 C   0  0  0  0  0  0
   16.5244   -0.3196   -3.6898 C   0  0  0  0  0  0
   16.2684   -1.6209   -4.1054 C   0  0  0  0  0  0
   15.4928   -2.4624   -3.3168 C   0  0  0  0  0  0
   14.6487   -4.3148   -1.3898 C   0  0  0  0  0  0
   15.9766   -4.5412   -1.7319 C   0  0  0  0  0  0
   16.4515   -5.8419   -1.8508 C   0  0  0  0  0  0
   15.5985   -6.9163   -1.6277 C   0  0  0  0  0  0
   14.2706   -6.6899   -1.2857 C   0  0  0  0  0  0
   13.3500   -7.8494   -1.0449 C   0  0  0  0  0  0
   13.8122   -9.1649   -1.1605 C   0  0  0  0  0  0
   12.9891  -10.2298   -0.9452 N   0  0  0  0  0  0
   11.6960   -9.9565   -0.6122 C   0  0  0  0  0  0
   11.2338   -8.6411   -0.4966 C   0  0  0  0  0  0
   12.0568   -7.5761   -0.7120 N   0  0  0  0  0  0
   13.7957   -5.3891   -1.1667 C   0  0  0  0  0  0
   14.1472   -2.4606    0.1842 C   0  0  0  0  0  0
   15.0964   -2.3516    0.9588 O   0  0  0  0  0  0
   13.1518   -1.6081    2.4642 H   0  0  0  0  0  0
   11.8218   -0.7277    1.6741 H   0  0  0  0  0  0
   11.5855   -2.4116    2.2005 H   0  0  0  0  0  0
   10.0035   -2.3922   -1.4572 H   0  0  0  0  0  0
   12.3384   -3.0482   -2.5078 H   0  0  0  0  0  0
   14.8245   -0.3435   -0.7594 H   0  0  0  0  0  0
   16.2040    1.1533   -2.1619 H   0  0  0  0  0  0
   17.1282    0.3356   -4.3037 H   0  0  0  0  0  0
   16.6730   -1.9788   -5.0430 H   0  0  0  0  0  0
   15.2936   -3.4755   -3.6405 H   0  0  0  0  0  0
   16.6407   -3.7047   -1.9056 H   0  0  0  0  0  0
   17.4854   -6.0182   -2.1171 H   0  0  0  0  0  0
   15.9683   -7.9290   -1.7203 H   0  0  0  0  0  0
   14.8419   -9.3679   -1.4256 H   0  0  0  0  0  0
   11.0315  -10.7934   -0.4385 H   0  0  0  0  0  0
   10.2040   -8.4380   -0.2315 H   0  0  0  0  0  0
   12.7618   -5.2129   -0.9005 H   0  0  0  0  0  0
   10.0446   -1.8626    0.2550 H   0  0  0  0  0  0
  1  2  1  0  0  0
  1 27  1  0  0  0
  1 28  1  0  0  0
  1 29  1  0  0  0
  2  3  1  0  0  0
  2 25  1  0  0  0
  3  4  1  0  0  0
  3  5  2  0  0  0
  4 30  1  0  0  0
  4 44  1  0  0  0
  5  6  1  0  0  0
  5 31  1  0  0  0
  6  7  1  0  0  0
  6 13  1  0  0  0
  6 25  1  0  0  0
  7  8  2  0  0  0
  7 12  1  0  0  0
  8  9  1  0  0  0
  8 32  1  0  0  0
  9 10  2  0  0  0
  9 33  1  0  0  0
 10 11  1  0  0  0
 10 34  1  0  0  0
 11 12  2  0  0  0
 11 35  1  0  0  0
 12 36  1  0  0  0
 13 14  2  0  0  0
 13 24  1  0  0  0
 14 15  1  0  0  0
 14 37  1  0  0  0
 15 16  2  0  0  0
 15 38  1  0  0  0
 16 17  1  0  0  0
 16 39  1  0  0  0
 17 18  1  0  0  0
 17 24  2  0  0  0
 18 19  2  0  0  0
 18 23  1  0  0  0
 19 20  1  0  0  0
 19 40  1  0  0  0
 20 21  2  0  0  0
 21 22  1  0  0  0
 21 41  1  0  0  0
 22 23  2  0  0  0
 22 42  1  0  0  0
 24 43  1  0  0  0
 25 26  2  0  0  0
M  CHG  1   5   1
M  END
> <s_m_entry_id>
1289

> <s_m_entry_name>
Bace_CAT-4l.1

> <s_m_Source_Path>
C:\Users\yujiethinkpad\Desktop\05A\BACE

> <s_m_Source_File>
Bace_CAT-4l.sdf

> <i_m_Source_File_Index>
1

> <s_m_job_name>
align_ligands_9

> <r_user_dG.exp>
-9.343

> <r_m_Molecular_weight>
344.39936

> <i_phase_Input_Structure_Number>
14

> <i_phase_Structure_Number>
14

> <i_phase_Reference_Structure>
36

> <s_phase_Core_SMARTS>
a1aaaaa1A2(A(=A)AA=[A]2)a3aa(aaa3)-a4aaaaa4

> <r_phase_Similarity_to_Reference>
0.813110631421943

> <s_phase_Alignment_Method>
flexible least-squares core

> <s_phase_Alignment_Reason>
stereochemistry change

> <s_m_subgroup_title>
align_ligands_9

> <s_m_subgroupid>
align_ligands_9

> <b_m_subgroup_collapsed>
0

$$$$
