CAT-13g
                    3D
 Schrodinger Suite 2021-2.
 52 55  0  0  1  0            999 V2000
   12.3731   -1.6216    1.5171 C   0  0  0  0  0  0
   12.9163   -2.1628    0.2747 N   0  0  0  0  0  0
   12.2190   -2.3751   -0.8357 C   0  0  0  0  0  0
   10.7936   -2.1012   -0.9936 N   0  0  0  0  0  0
   13.0105   -2.8746   -1.7840 N   0  3  0  0  0  0
   14.3894   -3.0365   -1.3237 C   0  0  1  0  0  0
   14.8286   -4.4702   -1.3654 C   0  0  0  0  0  0
   16.1655   -4.7814   -1.5829 C   0  0  0  0  0  0
   16.5724   -6.1098   -1.6214 C   0  0  0  0  0  0
   15.6424   -7.1269   -1.4425 C   0  0  0  0  0  0
   14.3054   -6.8157   -1.2249 C   0  0  0  0  0  0
   13.3017   -7.9135   -1.0318 C   0  0  0  0  0  0
   13.4833   -9.1504   -1.6430 C   0  0  0  0  0  0
   12.5493  -10.1680   -1.4618 C   0  0  0  0  0  0
   11.4256   -9.9575   -0.6677 C   0  0  0  0  0  0
   11.2433   -8.7217   -0.0565 C   0  0  0  0  0  0
    9.8545   -8.4473    0.9306 Cl  0  0  0  0  0  0
   12.1771   -7.7053   -0.2382 C   0  0  0  0  0  0
   13.8985   -5.4873   -1.1864 C   0  0  0  0  0  0
   15.3479   -2.2058   -2.1245 C   0  0  0  0  0  0
   15.3240   -2.6482   -3.6015 C   0  0  0  0  0  0
   16.2307   -1.7616   -4.4788 C   0  0  0  0  0  0
   15.8899   -0.2657   -4.3244 C   0  0  0  0  0  0
   15.9138    0.1767   -2.8474 C   0  0  0  0  0  0
   15.0070   -0.7099   -1.9701 C   0  0  0  0  0  0
   14.3026   -2.5381    0.1035 C   0  0  0  0  0  0
   15.1865   -2.4554    0.9548 O   0  0  0  0  0  0
   13.1665   -1.5540    2.2615 H   0  0  0  0  0  0
   11.9627   -0.6289    1.3323 H   0  0  0  0  0  0
   11.5845   -2.2780    1.8852 H   0  0  0  0  0  0
   10.3261   -2.2966   -1.8960 H   0  0  0  0  0  0
   12.7004   -3.1167   -2.7182 H   0  0  0  0  0  0
   16.8896   -3.9895   -1.7222 H   0  0  0  0  0  0
   17.6133   -6.3521   -1.7908 H   0  0  0  0  0  0
   15.9592   -8.1611   -1.4725 H   0  0  0  0  0  0
   14.3541   -9.3226   -2.2620 H   0  0  0  0  0  0
   12.6970  -11.1268   -1.9399 H   0  0  0  0  0  0
   10.7002  -10.7460   -0.5261 H   0  0  0  0  0  0
   12.0263   -6.7486    0.2412 H   0  0  0  0  0  0
   12.8576   -5.2450   -1.0170 H   0  0  0  0  0  0
   16.3370   -2.3977   -1.7042 H   0  0  0  0  0  0
   15.6297   -3.6926   -3.6839 H   0  0  0  0  0  0
   14.2999   -2.6035   -3.9771 H   0  0  0  0  0  0
   16.1444   -2.0586   -5.5253 H   0  0  0  0  0  0
   17.2744   -1.9261   -4.2040 H   0  0  0  0  0  0
   16.5872    0.3387   -4.9070 H   0  0  0  0  0  0
   14.9008   -0.0737   -4.7447 H   0  0  0  0  0  0
   16.9378    0.1320   -2.4718 H   0  0  0  0  0  0
   15.6081    1.2211   -2.7650 H   0  0  0  0  0  0
   13.9633   -0.5453   -2.2449 H   0  0  0  0  0  0
   15.0933   -0.4128   -0.9236 H   0  0  0  0  0  0
   10.2508   -1.7117   -0.2031 H   0  0  0  0  0  0
  1  2  1  0  0  0
  1 28  1  0  0  0
  1 29  1  0  0  0
  1 30  1  0  0  0
  2  3  1  0  0  0
  2 26  1  0  0  0
  3  4  1  0  0  0
  3  5  2  0  0  0
  4 31  1  0  0  0
  4 52  1  0  0  0
  5  6  1  0  0  0
  5 32  1  0  0  0
  6  7  1  0  0  0
  6 20  1  0  0  0
  6 26  1  0  0  0
  7  8  2  0  0  0
  7 19  1  0  0  0
  8  9  1  0  0  0
  8 33  1  0  0  0
  9 10  2  0  0  0
  9 34  1  0  0  0
 10 11  1  0  0  0
 10 35  1  0  0  0
 11 12  1  0  0  0
 11 19  2  0  0  0
 12 13  2  0  0  0
 12 18  1  0  0  0
 13 14  1  0  0  0
 13 36  1  0  0  0
 14 15  2  0  0  0
 14 37  1  0  0  0
 15 16  1  0  0  0
 15 38  1  0  0  0
 16 17  1  0  0  0
 16 18  2  0  0  0
 18 39  1  0  0  0
 19 40  1  0  0  0
 20 21  1  0  0  0
 20 25  1  0  0  0
 20 41  1  0  0  0
 21 22  1  0  0  0
 21 42  1  0  0  0
 21 43  1  0  0  0
 22 23  1  0  0  0
 22 44  1  0  0  0
 22 45  1  0  0  0
 23 24  1  0  0  0
 23 46  1  0  0  0
 23 47  1  0  0  0
 24 25  1  0  0  0
 24 48  1  0  0  0
 24 49  1  0  0  0
 25 50  1  0  0  0
 25 51  1  0  0  0
 26 27  2  0  0  0
M  CHG  1   5   1
M  END
> <s_m_entry_id>
1300

> <s_m_entry_name>
Bace_CAT-13g.1

> <s_m_Source_Path>
C:\Users\yujiethinkpad\Desktop\05A\BACE

> <s_m_Source_File>
Bace_CAT-13g.sdf

> <i_m_Source_File_Index>
1

> <s_m_job_name>
align_ligands_9

> <r_user_dG.exp>
-9.093

> <r_m_Molecular_weight>
382.91705

> <i_phase_Input_Structure_Number>
25

> <i_phase_Structure_Number>
25

> <i_phase_Reference_Structure>
36

> <s_phase_Core_SMARTS>
A=A1AA=[A]A1a2aa(aaa2)-a3aaaaa3

> <r_phase_Similarity_to_Reference>
0.784178113320725

> <s_phase_Alignment_Method>
flexible least-squares core

> <s_phase_Alignment_Reason>
stereochemistry change

> <s_m_subgroup_title>
align_ligands_9

> <s_m_subgroupid>
align_ligands_9

> <b_m_subgroup_collapsed>
0

$$$$
