CAT-4c
                    3D
 Schrodinger Suite 2021-2.
 50 53  0  0  1  0            999 V2000
    9.8115  -10.8646    0.4322 C   0  0  0  0  0  0
   10.8535  -11.0951   -0.4427 O   0  0  0  0  0  0
   11.6938  -10.0194   -0.6452 C   0  0  0  0  0  0
   11.4559   -8.8183    0.0123 C   0  0  0  0  0  0
   12.3022   -7.7349   -0.1917 C   0  0  0  0  0  0
   13.3864   -7.8525   -1.0532 C   0  0  0  0  0  0
   14.2998   -6.6832   -1.2734 C   0  0  0  0  0  0
   15.6398   -6.8953   -1.5748 C   0  0  0  0  0  0
   16.4861   -5.8119   -1.7788 C   0  0  0  0  0  0
   15.9924   -4.5164   -1.6814 C   0  0  0  0  0  0
   14.6523   -4.3043   -1.3800 C   0  0  0  0  0  0
   14.1194   -2.9061   -1.2748 C   0  0  1  0  0  0
   14.9703   -1.9924   -2.1061 C   0  0  0  0  0  0
   15.7091   -0.9852   -1.4967 C   0  0  0  0  0  0
   16.4975   -0.1386   -2.2668 C   0  0  0  0  0  0
   16.5471   -0.2991   -3.6465 C   0  0  0  0  0  0
   15.8083   -1.3062   -4.2559 C   0  0  0  0  0  0
   15.0199   -2.1529   -3.4857 C   0  0  0  0  0  0
   12.7080   -2.8303   -1.6516 N   0  3  0  0  0  0
   11.9411   -2.4093   -0.6467 C   0  0  0  0  0  0
   10.4935   -2.2319   -0.7159 N   0  0  0  0  0  0
   12.6860   -2.1743    0.4276 N   0  0  0  0  0  0
   12.1808   -1.7011    1.7131 C   0  0  0  0  0  0
   14.0823   -2.4479    0.1680 C   0  0  0  0  0  0
   15.0069   -2.3233    0.9696 O   0  0  0  0  0  0
   13.8060   -5.3877   -1.1760 C   0  0  0  0  0  0
   13.6243   -9.0536   -1.7108 C   0  0  0  0  0  0
   12.7780  -10.1371   -1.5068 C   0  0  0  0  0  0
    9.2085  -11.7679    0.5252 H   0  0  0  0  0  0
   10.2108  -10.5922    1.4092 H   0  0  0  0  0  0
    9.1921  -10.0517    0.0534 H   0  0  0  0  0  0
   10.6118   -8.7267    0.6831 H   0  0  0  0  0  0
   12.1170   -6.7998    0.3203 H   0  0  0  0  0  0
   16.0243   -7.9039   -1.6507 H   0  0  0  0  0  0
   17.5295   -5.9770   -2.0135 H   0  0  0  0  0  0
   16.6512   -3.6729   -1.8402 H   0  0  0  0  0  0
   15.6705   -0.8602   -0.4225 H   0  0  0  0  0  0
   17.0727    0.6456   -1.7924 H   0  0  0  0  0  0
   17.1609    0.3601   -4.2461 H   0  0  0  0  0  0
   15.8469   -1.4312   -5.3300 H   0  0  0  0  0  0
   14.4447   -2.9370   -3.9602 H   0  0  0  0  0  0
   12.3610   -3.0719   -2.5728 H   0  0  0  0  0  0
    9.9884   -2.4386   -1.5952 H   0  0  0  0  0  0
   13.0099   -1.5954    2.4127 H   0  0  0  0  0  0
   11.6934   -0.7354    1.5787 H   0  0  0  0  0  0
   11.4618   -2.4192    2.1075 H   0  0  0  0  0  0
   12.7627   -5.2226   -0.9413 H   0  0  0  0  0  0
   14.4684   -9.1452   -2.3816 H   0  0  0  0  0  0
   12.9632  -11.0722   -2.0188 H   0  0  0  0  0  0
    9.9725   -1.8995    0.1144 H   0  0  0  0  0  0
  1  2  1  0  0  0
  1 29  1  0  0  0
  1 30  1  0  0  0
  1 31  1  0  0  0
  2  3  1  0  0  0
  3  4  2  0  0  0
  3 28  1  0  0  0
  4  5  1  0  0  0
  4 32  1  0  0  0
  5  6  2  0  0  0
  5 33  1  0  0  0
  6  7  1  0  0  0
  6 27  1  0  0  0
  7  8  2  0  0  0
  7 26  1  0  0  0
  8  9  1  0  0  0
  8 34  1  0  0  0
  9 10  2  0  0  0
  9 35  1  0  0  0
 10 11  1  0  0  0
 10 36  1  0  0  0
 11 12  1  0  0  0
 11 26  2  0  0  0
 12 13  1  0  0  0
 12 19  1  0  0  0
 12 24  1  0  0  0
 13 14  2  0  0  0
 13 18  1  0  0  0
 14 15  1  0  0  0
 14 37  1  0  0  0
 15 16  2  0  0  0
 15 38  1  0  0  0
 16 17  1  0  0  0
 16 39  1  0  0  0
 17 18  2  0  0  0
 17 40  1  0  0  0
 18 41  1  0  0  0
 19 20  2  0  0  0
 19 42  1  0  0  0
 20 21  1  0  0  0
 20 22  1  0  0  0
 21 43  1  0  0  0
 21 50  1  0  0  0
 22 23  1  0  0  0
 22 24  1  0  0  0
 23 44  1  0  0  0
 23 45  1  0  0  0
 23 46  1  0  0  0
 24 25  2  0  0  0
 26 47  1  0  0  0
 27 28  2  0  0  0
 27 48  1  0  0  0
 28 49  1  0  0  0
M  CHG  1  19   1
M  END
> <s_m_entry_id>
1285

> <s_m_entry_name>
Bace_CAT-4c.1

> <s_m_Source_Path>
C:\Users\yujiethinkpad\Desktop\05A\BACE

> <s_m_Source_File>
Bace_CAT-4c.sdf

> <i_m_Source_File_Index>
1

> <s_m_job_name>
align_ligands_9

> <r_user_dG.exp>
-7.853

> <r_m_Molecular_weight>
372.45069

> <i_phase_Input_Structure_Number>
10

> <i_phase_Structure_Number>
10

> <i_phase_Reference_Structure>
36

> <s_phase_Core_SMARTS>
a1aaaaa1A2(A(=A)AA=[A]2)a3aa(aaa3)-a4aaaaa4

> <r_phase_Similarity_to_Reference>
0.755209657540868

> <s_phase_Alignment_Method>
flexible least-squares core

> <s_phase_Alignment_Reason>
stereochemistry change

> <s_m_subgroup_title>
align_ligands_9

> <s_m_subgroupid>
align_ligands_9

> <b_m_subgroup_collapsed>
0

$$$$
