CAT-17g
                    3D
 Schrodinger Suite 2021-2.
 42 45  0  0  1  0            999 V2000
   12.8360   -1.7577    1.9186 C   0  0  0  0  0  0
   13.1638   -2.2336    0.5778 N   0  0  0  0  0  0
   12.2931   -2.3835   -0.4140 C   0  0  0  0  0  0
   10.8645   -2.0961   -0.3235 N   0  0  0  0  0  0
   12.9141   -2.8345   -1.5031 N   0  3  0  0  0  0
   14.3473   -3.0261   -1.2822 C   0  0  1  0  0  0
   14.7560   -4.4571   -1.4695 C   0  0  0  0  0  0
   16.0360   -4.7614   -1.9174 C   0  0  0  0  0  0
   16.4146   -6.0873   -2.0909 C   0  0  0  0  0  0
   15.5133   -7.1090   -1.8165 C   0  0  0  0  0  0
   14.2333   -6.8048   -1.3686 C   0  0  0  0  0  0
   13.2605   -7.9075   -1.0724 C   0  0  0  0  0  0
   12.2763   -7.7436   -0.0944 C   0  0  0  0  0  0
   11.3732   -8.7153    0.2082 N   0  0  0  0  0  0
   11.4475   -9.8884   -0.4811 C   0  0  0  0  0  0
   12.4029  -10.1260   -1.4721 C   0  0  0  0  0  0
   12.4394  -11.3066   -2.1310 F   0  0  0  0  0  0
   13.3214   -9.1179   -1.7692 C   0  0  0  0  0  0
   13.8546   -5.4788   -1.1951 C   0  0  0  0  0  0
   15.1735   -2.1573   -2.1837 C   0  0  0  0  0  0
   14.5703   -0.8783   -2.7187 C   0  0  0  0  0  0
   15.6560   -0.8205   -1.6680 C   0  0  0  0  0  0
   14.4992   -2.6045    0.1642 C   0  0  0  0  0  0
   15.5105   -2.5709    0.8636 O   0  0  0  0  0  0
   13.7404   -1.7331    2.5266 H   0  0  0  0  0  0
   12.4135   -0.7549    1.8550 H   0  0  0  0  0  0
   12.1095   -2.4298    2.3752 H   0  0  0  0  0  0
   10.2544   -2.2411   -1.1469 H   0  0  0  0  0  0
   12.4536   -3.0250   -2.3858 H   0  0  0  0  0  0
   16.7377   -3.9659   -2.1311 H   0  0  0  0  0  0
   17.4112   -6.3242   -2.4397 H   0  0  0  0  0  0
   15.8081   -8.1413   -1.9516 H   0  0  0  0  0  0
   12.2055   -6.8161    0.4614 H   0  0  0  0  0  0
   10.7265  -10.6564   -0.2354 H   0  0  0  0  0  0
   14.0708   -9.2758   -2.5315 H   0  0  0  0  0  0
   12.8581   -5.2420   -0.8463 H   0  0  0  0  0  0
   15.8311   -2.7413   -2.8311 H   0  0  0  0  0  0
   14.8072   -0.5701   -3.7393 H   0  0  0  0  0  0
   13.5480   -0.6186   -2.4355 H   0  0  0  0  0  0
   15.3910   -0.5204   -0.6518 H   0  0  0  0  0  0
   16.6502   -0.4719   -1.9556 H   0  0  0  0  0  0
   10.4619   -1.7474    0.5640 H   0  0  0  0  0  0
  1  2  1  0  0  0
  1 25  1  0  0  0
  1 26  1  0  0  0
  1 27  1  0  0  0
  2  3  1  0  0  0
  2 23  1  0  0  0
  3  4  1  0  0  0
  3  5  2  0  0  0
  4 28  1  0  0  0
  4 42  1  0  0  0
  5  6  1  0  0  0
  5 29  1  0  0  0
  6  7  1  0  0  0
  6 20  1  0  0  0
  6 23  1  0  0  0
  7  8  2  0  0  0
  7 19  1  0  0  0
  8  9  1  0  0  0
  8 30  1  0  0  0
  9 10  2  0  0  0
  9 31  1  0  0  0
 10 11  1  0  0  0
 10 32  1  0  0  0
 11 12  1  0  0  0
 11 19  2  0  0  0
 12 13  2  0  0  0
 12 18  1  0  0  0
 13 14  1  0  0  0
 13 33  1  0  0  0
 14 15  2  0  0  0
 15 16  1  0  0  0
 15 34  1  0  0  0
 16 18  2  0  0  0
 16 17  1  0  0  0
 18 35  1  0  0  0
 19 36  1  0  0  0
 20 21  1  0  0  0
 20 22  1  0  0  0
 20 37  1  0  0  0
 21 22  1  0  0  0
 21 38  1  0  0  0
 21 39  1  0  0  0
 22 40  1  0  0  0
 22 41  1  0  0  0
 23 24  2  0  0  0
M  CHG  1   5   1
M  END
> <s_m_entry_id>
1279

> <s_m_entry_name>
Bace_CAT-17g.1

> <s_m_Source_Path>
C:\Users\yujiethinkpad\Desktop\05A\BACE

> <s_m_Source_File>
Bace_CAT-17g.sdf

> <i_m_Source_File_Index>
1

> <s_m_job_name>
align_ligands_9

> <r_user_dG.exp>
-9.743

> <r_m_Molecular_weight>
325.36876

> <i_phase_Input_Structure_Number>
4

> <i_phase_Structure_Number>
4

> <i_phase_Reference_Structure>
36

> <s_phase_Core_SMARTS>
A=A1AA=[A]A1a2aa(aaa2)-a3aaaaa3

> <r_phase_Similarity_to_Reference>
0.720002597872401

> <s_phase_Alignment_Method>
flexible least-squares core

> <s_phase_Alignment_Reason>
stereochemistry change

> <s_m_subgroup_title>
align_ligands_9

> <s_m_subgroupid>
align_ligands_9

> <b_m_subgroup_collapsed>
0

$$$$
