CAT-17f
                    3D
 Schrodinger Suite 2021-2.
 43 46  0  0  1  0            999 V2000
   12.8344   -1.7605    1.9188 C   0  0  0  0  0  0
   13.1622   -2.2364    0.5781 N   0  0  0  0  0  0
   12.2916   -2.3862   -0.4139 C   0  0  0  0  0  0
   10.8631   -2.0984   -0.3235 N   0  0  0  0  0  0
   12.9127   -2.8373   -1.5029 N   0  3  0  0  0  0
   14.3458   -3.0292   -1.2818 C   0  0  1  0  0  0
   14.7542   -4.4603   -1.4690 C   0  0  0  0  0  0
   16.0342   -4.7649   -1.9168 C   0  0  0  0  0  0
   16.4126   -6.0909   -2.0902 C   0  0  0  0  0  0
   15.5110   -7.1124   -1.8159 C   0  0  0  0  0  0
   14.2310   -6.8079   -1.3682 C   0  0  0  0  0  0
   13.2579   -7.9104   -1.0721 C   0  0  0  0  0  0
   12.2797   -7.7365   -0.0946 C   0  0  0  0  0  0
   11.3790   -8.7057    0.2066 N   0  0  0  0  0  0
   11.4556   -9.8742   -0.4823 C   0  0  0  0  0  0
   12.4062  -10.1188   -1.4724 C   0  0  0  0  0  0
   12.4374  -11.4319   -2.1969 C   0  0  0  0  0  0
   12.4862  -12.4343   -2.7726 N   0  0  0  0  0  0
   13.3250   -9.1151   -1.7717 C   0  0  0  0  0  0
   13.8526   -5.4819   -1.1947 C   0  0  0  0  0  0
   15.1723   -2.1606   -2.1832 C   0  0  0  0  0  0
   14.5695   -0.8815   -2.7182 C   0  0  0  0  0  0
   15.6550   -0.8239   -1.6674 C   0  0  0  0  0  0
   14.4976   -2.6076    0.1647 C   0  0  0  0  0  0
   15.5088   -2.5742    0.8642 O   0  0  0  0  0  0
   13.7386   -1.7360    2.5269 H   0  0  0  0  0  0
   12.4121   -0.7576    1.8552 H   0  0  0  0  0  0
   12.1076   -2.4324    2.3753 H   0  0  0  0  0  0
   10.2531   -2.2433   -1.1470 H   0  0  0  0  0  0
   12.4523   -3.0277   -2.3856 H   0  0  0  0  0  0
   16.7361   -3.9696   -2.1303 H   0  0  0  0  0  0
   17.4091   -6.3280   -2.4388 H   0  0  0  0  0  0
   15.8056   -8.1448   -1.9510 H   0  0  0  0  0  0
   12.2127   -6.8074    0.4588 H   0  0  0  0  0  0
   10.7289  -10.6370   -0.2292 H   0  0  0  0  0  0
   14.0774   -9.2676   -2.5336 H   0  0  0  0  0  0
   12.8560   -5.2448   -0.8461 H   0  0  0  0  0  0
   15.8299   -2.7448   -2.8305 H   0  0  0  0  0  0
   14.8066   -0.5733   -3.7388 H   0  0  0  0  0  0
   13.5472   -0.6215   -2.4352 H   0  0  0  0  0  0
   15.3899   -0.5238   -0.6513 H   0  0  0  0  0  0
   16.6493   -0.4756   -1.9549 H   0  0  0  0  0  0
   10.4605   -1.7496    0.5639 H   0  0  0  0  0  0
  1  2  1  0  0  0
  1 26  1  0  0  0
  1 27  1  0  0  0
  1 28  1  0  0  0
  2  3  1  0  0  0
  2 24  1  0  0  0
  3  4  1  0  0  0
  3  5  2  0  0  0
  4 29  1  0  0  0
  4 43  1  0  0  0
  5  6  1  0  0  0
  5 30  1  0  0  0
  6  7  1  0  0  0
  6 21  1  0  0  0
  6 24  1  0  0  0
  7  8  2  0  0  0
  7 20  1  0  0  0
  8  9  1  0  0  0
  8 31  1  0  0  0
  9 10  2  0  0  0
  9 32  1  0  0  0
 10 11  1  0  0  0
 10 33  1  0  0  0
 11 12  1  0  0  0
 11 20  2  0  0  0
 12 13  2  0  0  0
 12 19  1  0  0  0
 13 14  1  0  0  0
 13 34  1  0  0  0
 14 15  2  0  0  0
 15 16  1  0  0  0
 15 35  1  0  0  0
 16 17  1  0  0  0
 16 19  2  0  0  0
 17 18  3  0  0  0
 19 36  1  0  0  0
 20 37  1  0  0  0
 21 22  1  0  0  0
 21 23  1  0  0  0
 21 38  1  0  0  0
 22 23  1  0  0  0
 22 39  1  0  0  0
 22 40  1  0  0  0
 23 41  1  0  0  0
 23 42  1  0  0  0
 24 25  2  0  0  0
M  CHG  1   5   1
M  END
> <s_m_entry_id>
1278

> <s_m_entry_name>
Bace_CAT-17f.1

> <s_m_Source_Path>
C:\Users\yujiethinkpad\Desktop\05A\BACE

> <s_m_Source_File>
Bace_CAT-17f.sdf

> <i_m_Source_File_Index>
1

> <s_m_job_name>
align_ligands_9

> <r_user_dG.exp>
-9.423

> <r_m_Molecular_weight>
332.38821

> <i_phase_Input_Structure_Number>
3

> <i_phase_Structure_Number>
3

> <i_phase_Reference_Structure>
36

> <s_phase_Core_SMARTS>
A=A1AA=[A]A1a2aa(aaa2)-a3aaaaa3

> <r_phase_Similarity_to_Reference>
0.729472474318117

> <s_phase_Alignment_Method>
flexible least-squares core

> <s_phase_Alignment_Reason>
stereochemistry change

> <s_m_subgroup_title>
align_ligands_9

> <s_m_subgroupid>
align_ligands_9

> <b_m_subgroup_collapsed>
0

$$$$
