CAT-13a
                    3D
 Schrodinger Suite 2021-2.
 39 41  0  0  1  0            999 V2000
   12.8493   -1.7438    1.9169 C   0  0  0  0  0  0
   13.1726   -2.2232    0.5763 N   0  0  0  0  0  0
   12.2990   -2.3737   -0.4129 C   0  0  0  0  0  0
   10.8712   -2.0835   -0.3192 N   0  0  0  0  0  0
   12.9162   -2.8282   -1.5027 N   0  3  0  0  0  0
   14.3497   -3.0219   -1.2852 C   0  0  2  0  0  0
   15.1750   -2.1566   -2.1908 C   0  0  0  0  0  0
   14.7553   -4.4541   -1.4705 C   0  0  0  0  0  0
   16.0335   -4.7616   -1.9212 C   0  0  0  0  0  0
   16.4094   -6.0886   -2.0928 C   0  0  0  0  0  0
   15.5069   -7.1080   -1.8137 C   0  0  0  0  0  0
   14.2287   -6.8005   -1.3630 C   0  0  0  0  0  0
   13.2547   -7.9009   -1.0618 C   0  0  0  0  0  0
   13.3154   -9.1056   -1.7557 C   0  0  0  0  0  0
   12.4095  -10.1256   -1.4738 C   0  0  0  0  0  0
   11.4350   -9.9498   -0.4954 C   0  0  0  0  0  0
   11.3737   -8.7462    0.1985 C   0  0  0  0  0  0
   10.1705   -8.5149    1.4139 Cl  0  0  0  0  0  0
   12.2794   -7.7273   -0.0839 C   0  0  0  0  0  0
   13.8529   -5.4735   -1.1914 C   0  0  0  0  0  0
   14.5063   -2.5974    0.1599 C   0  0  0  0  0  0
   15.5194   -2.5641    0.8565 O   0  0  0  0  0  0
   13.7554   -1.7195    2.5224 H   0  0  0  0  0  0
   12.4285   -0.7404    1.8523 H   0  0  0  0  0  0
   12.1228   -2.4136    2.3769 H   0  0  0  0  0  0
   10.2586   -2.2292   -1.1406 H   0  0  0  0  0  0
   12.4531   -3.0198   -2.3837 H   0  0  0  0  0  0
   16.2330   -2.3320   -1.9960 H   0  0  0  0  0  0
   14.9515   -2.4005   -3.2294 H   0  0  0  0  0  0
   14.9403   -1.1085   -2.0051 H   0  0  0  0  0  0
   16.7361   -3.9678   -2.1384 H   0  0  0  0  0  0
   17.4045   -6.3280   -2.4437 H   0  0  0  0  0  0
   15.7995   -8.1412   -1.9474 H   0  0  0  0  0  0
   14.0698   -9.2507   -2.5179 H   0  0  0  0  0  0
   12.4625  -11.0593   -2.0171 H   0  0  0  0  0  0
   10.7315  -10.7402   -0.2756 H   0  0  0  0  0  0
   12.2233   -6.7958    0.4610 H   0  0  0  0  0  0
   12.8577   -5.2341   -0.8405 H   0  0  0  0  0  0
   10.4716   -1.7321    0.5686 H   0  0  0  0  0  0
  1  2  1  0  0  0
  1 23  1  0  0  0
  1 24  1  0  0  0
  1 25  1  0  0  0
  2  3  1  0  0  0
  2 21  1  0  0  0
  3  4  1  0  0  0
  3  5  2  0  0  0
  4 26  1  0  0  0
  4 39  1  0  0  0
  5  6  1  0  0  0
  5 27  1  0  0  0
  6  7  1  0  0  0
  6  8  1  0  0  0
  6 21  1  0  0  0
  7 28  1  0  0  0
  7 29  1  0  0  0
  7 30  1  0  0  0
  8  9  2  0  0  0
  8 20  1  0  0  0
  9 10  1  0  0  0
  9 31  1  0  0  0
 10 11  2  0  0  0
 10 32  1  0  0  0
 11 12  1  0  0  0
 11 33  1  0  0  0
 12 13  1  0  0  0
 12 20  2  0  0  0
 13 14  2  0  0  0
 13 19  1  0  0  0
 14 15  1  0  0  0
 14 34  1  0  0  0
 15 16  2  0  0  0
 15 35  1  0  0  0
 16 17  1  0  0  0
 16 36  1  0  0  0
 17 18  1  0  0  0
 17 19  2  0  0  0
 19 37  1  0  0  0
 20 38  1  0  0  0
 21 22  2  0  0  0
M  CHG  1   5   1
M  END
> <i_m_stars>
2

> <s_m_entry_id>
1294

> <s_m_entry_name>
Bace_CAT-13a.1

> <s_m_Source_Path>
C:\Users\yujiethinkpad\Desktop\05A\BACE

> <s_m_Source_File>
Bace_CAT-13a.sdf

> <i_m_Source_File_Index>
1

> <s_m_job_name>
align_ligands_9

> <r_user_dG.exp>
-8.843

> <r_m_Molecular_weight>
314.79754

> <i_phase_Input_Structure_Number>
19

> <i_phase_Structure_Number>
19

> <i_phase_Reference_Structure>
36

> <s_phase_Core_SMARTS>
A=A1AA=[A]A1a2aa(aaa2)-a3aaaaa3

> <r_phase_Similarity_to_Reference>
0.673285151853898

> <s_phase_Alignment_Method>
flexible least-squares core

> <s_phase_Alignment_Reason>
stereochemistry change

> <s_m_subgroup_title>
align_ligands_9

> <s_m_subgroupid>
align_ligands_9

> <b_m_subgroup_collapsed>
0

$$$$
