CAT-13c
                    3D
 Schrodinger Suite 2021-2.
 45 47  0  0  1  0            999 V2000
   15.2826   -2.6168   -3.5656 C   0  0  0  0  0  0
   15.3479   -2.2058   -2.1245 C   0  0  0  0  0  0
   14.9785   -0.7573   -2.0006 C   0  0  0  0  0  0
   14.3894   -3.0365   -1.3237 C   0  0  2  0  0  0
   14.8286   -4.4702   -1.3654 C   0  0  0  0  0  0
   16.1655   -4.7814   -1.5829 C   0  0  0  0  0  0
   16.5724   -6.1098   -1.6214 C   0  0  0  0  0  0
   15.6424   -7.1269   -1.4425 C   0  0  0  0  0  0
   14.3054   -6.8157   -1.2249 C   0  0  0  0  0  0
   13.3017   -7.9135   -1.0318 C   0  0  0  0  0  0
   13.4833   -9.1504   -1.6430 C   0  0  0  0  0  0
   12.5493  -10.1680   -1.4618 C   0  0  0  0  0  0
   11.4256   -9.9575   -0.6677 C   0  0  0  0  0  0
   11.2433   -8.7217   -0.0565 C   0  0  0  0  0  0
    9.8545   -8.4473    0.9306 Cl  0  0  0  0  0  0
   12.1771   -7.7053   -0.2382 C   0  0  0  0  0  0
   13.8985   -5.4873   -1.1864 C   0  0  0  0  0  0
   13.0105   -2.8746   -1.7840 N   0  3  0  0  0  0
   12.2190   -2.3751   -0.8357 C   0  0  0  0  0  0
   10.7936   -2.1012   -0.9936 N   0  0  0  0  0  0
   12.9163   -2.1628    0.2747 N   0  0  0  0  0  0
   12.3731   -1.6216    1.5171 C   0  0  0  0  0  0
   14.3026   -2.5381    0.1035 C   0  0  0  0  0  0
   15.1865   -2.4554    0.9548 O   0  0  0  0  0  0
   14.2703   -2.4666   -3.9408 H   0  0  0  0  0  0
   15.9791   -2.0132   -4.1476 H   0  0  0  0  0  0
   15.5510   -3.6694   -3.6557 H   0  0  0  0  0  0
   16.3602   -2.3560   -1.7494 H   0  0  0  0  0  0
   13.9662   -0.6070   -2.3757 H   0  0  0  0  0  0
   15.0259   -0.4586   -0.9534 H   0  0  0  0  0  0
   15.6750   -0.1536   -2.5825 H   0  0  0  0  0  0
   16.8896   -3.9895   -1.7222 H   0  0  0  0  0  0
   17.6133   -6.3521   -1.7908 H   0  0  0  0  0  0
   15.9592   -8.1611   -1.4725 H   0  0  0  0  0  0
   14.3541   -9.3226   -2.2620 H   0  0  0  0  0  0
   12.6970  -11.1268   -1.9399 H   0  0  0  0  0  0
   10.7002  -10.7460   -0.5261 H   0  0  0  0  0  0
   12.0263   -6.7486    0.2412 H   0  0  0  0  0  0
   12.8576   -5.2450   -1.0170 H   0  0  0  0  0  0
   12.7004   -3.1167   -2.7182 H   0  0  0  0  0  0
   10.3261   -2.2966   -1.8960 H   0  0  0  0  0  0
   13.1665   -1.5540    2.2615 H   0  0  0  0  0  0
   11.9627   -0.6289    1.3323 H   0  0  0  0  0  0
   11.5845   -2.2780    1.8852 H   0  0  0  0  0  0
   10.2508   -1.7117   -0.2031 H   0  0  0  0  0  0
  1  2  1  0  0  0
  1 25  1  0  0  0
  1 26  1  0  0  0
  1 27  1  0  0  0
  2  3  1  0  0  0
  2  4  1  0  0  0
  2 28  1  0  0  0
  3 29  1  0  0  0
  3 30  1  0  0  0
  3 31  1  0  0  0
  4  5  1  0  0  0
  4 18  1  0  0  0
  4 23  1  0  0  0
  5  6  2  0  0  0
  5 17  1  0  0  0
  6  7  1  0  0  0
  6 32  1  0  0  0
  7  8  2  0  0  0
  7 33  1  0  0  0
  8  9  1  0  0  0
  8 34  1  0  0  0
  9 10  1  0  0  0
  9 17  2  0  0  0
 10 11  2  0  0  0
 10 16  1  0  0  0
 11 12  1  0  0  0
 11 35  1  0  0  0
 12 13  2  0  0  0
 12 36  1  0  0  0
 13 14  1  0  0  0
 13 37  1  0  0  0
 14 15  1  0  0  0
 14 16  2  0  0  0
 16 38  1  0  0  0
 17 39  1  0  0  0
 18 19  2  0  0  0
 18 40  1  0  0  0
 19 20  1  0  0  0
 19 21  1  0  0  0
 20 41  1  0  0  0
 20 45  1  0  0  0
 21 22  1  0  0  0
 21 23  1  0  0  0
 22 42  1  0  0  0
 22 43  1  0  0  0
 22 44  1  0  0  0
 23 24  2  0  0  0
M  CHG  1  18   1
M  END
> <s_m_entry_id>
1296

> <s_m_entry_name>
Bace_CAT-13c.1

> <s_m_Source_Path>
C:\Users\yujiethinkpad\Desktop\05A\BACE

> <s_m_Source_File>
Bace_CAT-13c.sdf

> <i_m_Source_File_Index>
1

> <s_m_job_name>
align_ligands_9

> <r_user_dG.exp>
-9.323

> <r_m_Molecular_weight>
342.85172

> <i_phase_Input_Structure_Number>
21

> <i_phase_Structure_Number>
21

> <i_phase_Reference_Structure>
36

> <s_phase_Core_SMARTS>
A=A1AA=[A]A1a2aa(aaa2)-a3aaaaa3

> <r_phase_Similarity_to_Reference>
0.752897825316843

> <s_phase_Alignment_Method>
flexible least-squares core

> <s_phase_Alignment_Reason>
stereochemistry change

> <s_m_subgroup_title>
align_ligands_9

> <s_m_subgroupid>
align_ligands_9

> <b_m_subgroup_collapsed>
0

$$$$
