CAT-13m
                    3D
 Schrodinger Suite 2021-2.
 44 47  0  0  1  0            999 V2000
   12.5989   -1.7678    2.0078 C   0  0  0  0  0  0
   12.9529   -2.2048    0.6605 N   0  0  0  0  0  0
   12.0930   -2.3816   -0.3363 C   0  0  0  0  0  0
   10.6517   -2.1671   -0.2454 N   0  0  0  0  0  0
   12.7381   -2.7833   -1.4307 N   0  3  0  0  0  0
   14.1785   -2.9070   -1.2086 C   0  0  2  0  0  0
   14.9625   -1.9836   -2.0934 C   0  0  0  0  0  0
   15.7999   -1.0050   -1.5597 C   0  0  0  0  0  0
   16.5164   -0.1612   -2.3497 N   0  0  0  0  0  0
   16.3794   -0.3147   -3.6926 C   0  0  0  0  0  0
   15.5882   -1.2389   -4.2969 N   0  0  0  0  0  0
   14.8832   -2.0693   -3.4827 C   0  0  0  0  0  0
   14.6583   -4.3127   -1.4178 C   0  0  0  0  0  0
   15.9528   -4.5456   -1.8667 C   0  0  0  0  0  0
   16.3974   -5.8480   -2.0606 C   0  0  0  0  0  0
   15.5474   -6.9177   -1.8055 C   0  0  0  0  0  0
   14.2529   -6.6848   -1.3566 C   0  0  0  0  0  0
   13.3355   -7.8392   -1.0812 C   0  0  0  0  0  0
   12.3471   -7.7375   -0.1068 C   0  0  0  0  0  0
   11.4967   -8.8113    0.1466 C   0  0  0  0  0  0
   11.6271   -9.9962   -0.5722 C   0  0  0  0  0  0
   12.6145  -10.0987   -1.5461 C   0  0  0  0  0  0
   12.7872  -11.5620   -2.4446 Cl  0  0  0  0  0  0
   13.4640   -9.0251   -1.7987 C   0  0  0  0  0  0
   13.8083   -5.3823   -1.1627 C   0  0  0  0  0  0
   14.3061   -2.5021    0.2450 C   0  0  0  0  0  0
   15.3129   -2.4297    0.9478 O   0  0  0  0  0  0
   13.4996   -1.7082    2.6188 H   0  0  0  0  0  0
   12.1272   -0.7864    1.9592 H   0  0  0  0  0  0
   11.9057   -2.4826    2.4512 H   0  0  0  0  0  0
   10.0514   -2.3287   -1.0729 H   0  0  0  0  0  0
   12.2896   -2.9820   -2.3177 H   0  0  0  0  0  0
   15.9021   -0.8908   -0.4866 H   0  0  0  0  0  0
   16.9468    0.3536   -4.3329 H   0  0  0  0  0  0
   14.2487   -2.8105   -3.9550 H   0  0  0  0  0  0
   16.6146   -3.7128   -2.0653 H   0  0  0  0  0  0
   17.4053   -6.0293   -2.4101 H   0  0  0  0  0  0
   15.8935   -7.9317   -1.9564 H   0  0  0  0  0  0
   12.2388   -6.8199    0.4566 H   0  0  0  0  0  0
   10.7308   -8.7251    0.9054 H   0  0  0  0  0  0
   10.9680  -10.8301   -0.3767 H   0  0  0  0  0  0
   14.2281   -9.1149   -2.5577 H   0  0  0  0  0  0
   12.8004   -5.2010   -0.8132 H   0  0  0  0  0  0
   10.2303   -1.8534    0.6464 H   0  0  0  0  0  0
  1  2  1  0  0  0
  1 28  1  0  0  0
  1 29  1  0  0  0
  1 30  1  0  0  0
  2  3  1  0  0  0
  2 26  1  0  0  0
  3  4  1  0  0  0
  3  5  2  0  0  0
  4 31  1  0  0  0
  4 44  1  0  0  0
  5  6  1  0  0  0
  5 32  1  0  0  0
  6  7  1  0  0  0
  6 13  1  0  0  0
  6 26  1  0  0  0
  7  8  2  0  0  0
  7 12  1  0  0  0
  8  9  1  0  0  0
  8 33  1  0  0  0
  9 10  2  0  0  0
 10 11  1  0  0  0
 10 34  1  0  0  0
 11 12  2  0  0  0
 12 35  1  0  0  0
 13 14  2  0  0  0
 13 25  1  0  0  0
 14 15  1  0  0  0
 14 36  1  0  0  0
 15 16  2  0  0  0
 15 37  1  0  0  0
 16 17  1  0  0  0
 16 38  1  0  0  0
 17 18  1  0  0  0
 17 25  2  0  0  0
 18 19  2  0  0  0
 18 24  1  0  0  0
 19 20  1  0  0  0
 19 39  1  0  0  0
 20 21  2  0  0  0
 20 40  1  0  0  0
 21 22  1  0  0  0
 21 41  1  0  0  0
 22 23  1  0  0  0
 22 24  2  0  0  0
 24 42  1  0  0  0
 25 43  1  0  0  0
 26 27  2  0  0  0
M  CHG  1   5   1
M  END
> <s_m_entry_id>
1305

> <s_m_entry_name>
Bace_CAT-13m.1

> <s_m_Source_Path>
C:\Users\yujiethinkpad\Desktop\05A\BACE

> <s_m_Source_File>
Bace_CAT-13m.sdf

> <i_m_Source_File_Index>
1

> <s_m_job_name>
align_ligands_9

> <r_user_dG.exp>
-8.763

> <r_m_Molecular_weight>
378.84439

> <i_phase_Input_Structure_Number>
30

> <i_phase_Structure_Number>
30

> <i_phase_Reference_Structure>
36

> <s_phase_Core_SMARTS>
a1aaaaa1A2(A(=A)AA=[A]2)a3aa(aaa3)-a4aaaaa4

> <r_phase_Similarity_to_Reference>
0.778696320461873

> <s_phase_Alignment_Method>
flexible least-squares core

> <s_phase_Alignment_Reason>
stereochemistry change

> <s_m_subgroup_title>
align_ligands_9

> <s_m_subgroupid>
align_ligands_9

> <b_m_subgroup_collapsed>
0

$$$$
