CAT-13n
                    3D
 Schrodinger Suite 2021-2.
 44 47  0  0  1  0            999 V2000
   12.6073   -1.7488    1.9906 C   0  0  0  0  0  0
   12.9622   -2.1890    0.6446 N   0  0  0  0  0  0
   12.1031   -2.3668   -0.3528 C   0  0  0  0  0  0
   10.6619   -2.1504   -0.2639 N   0  0  0  0  0  0
   12.7489   -2.7715   -1.4457 N   0  3  0  0  0  0
   14.1889   -2.8964   -1.2218 C   0  0  1  0  0  0
   14.6673   -4.3031   -1.4276 C   0  0  0  0  0  0
   15.9620   -4.5384   -1.8747 C   0  0  0  0  0  0
   16.4053   -5.8418   -2.0654 C   0  0  0  0  0  0
   15.5537   -6.9099   -1.8090 C   0  0  0  0  0  0
   14.2590   -6.6746   -1.3619 C   0  0  0  0  0  0
   13.3400   -7.8274   -1.0853 C   0  0  0  0  0  0
   12.3507   -7.7225   -0.1121 C   0  0  0  0  0  0
   11.4987   -8.7948    0.1426 C   0  0  0  0  0  0
   11.6285   -9.9813   -0.5736 C   0  0  0  0  0  0
   12.6168  -10.0870   -1.5463 C   0  0  0  0  0  0
   12.7887  -11.5523   -2.4416 Cl  0  0  0  0  0  0
   13.4679   -9.0149   -1.8002 C   0  0  0  0  0  0
   13.8158   -5.3712   -1.1712 C   0  0  0  0  0  0
   14.9749   -1.9758   -2.1076 C   0  0  0  0  0  0
   15.7666   -1.0513   -1.5042 N   0  0  0  0  0  0
   16.4734   -0.2234   -2.3194 C   0  0  0  0  0  0
   16.3956   -0.3118   -3.7086 C   0  0  0  0  0  0
   15.5575   -1.2906   -4.2412 C   0  0  0  0  0  0
   14.8392   -2.1319   -3.4502 N   0  0  0  0  0  0
   14.3154   -2.4887    0.2311 C   0  0  0  0  0  0
   15.3215   -2.4160    0.9349 O   0  0  0  0  0  0
   13.5074   -1.6890    2.6025 H   0  0  0  0  0  0
   12.1368   -0.7669    1.9396 H   0  0  0  0  0  0
   11.9127   -2.4619    2.4348 H   0  0  0  0  0  0
   10.0624   -2.3130   -1.0916 H   0  0  0  0  0  0
   12.3011   -2.9715   -2.3327 H   0  0  0  0  0  0
   16.6250   -3.7069   -2.0743 H   0  0  0  0  0  0
   17.4133   -6.0250   -2.4135 H   0  0  0  0  0  0
   15.8988   -7.9247   -1.9575 H   0  0  0  0  0  0
   12.2428   -6.8037    0.4493 H   0  0  0  0  0  0
   10.7321   -8.7062    0.9004 H   0  0  0  0  0  0
   10.9682  -10.8140   -0.3771 H   0  0  0  0  0  0
   14.2327   -9.1071   -2.5581 H   0  0  0  0  0  0
   12.8077   -5.1880   -0.8232 H   0  0  0  0  0  0
   17.1083    0.5180   -1.8479 H   0  0  0  0  0  0
   16.9617    0.3513   -4.3467 H   0  0  0  0  0  0
   15.4564   -1.4068   -5.3142 H   0  0  0  0  0  0
   10.2400   -1.8344    0.6268 H   0  0  0  0  0  0
  1  2  1  0  0  0
  1 28  1  0  0  0
  1 29  1  0  0  0
  1 30  1  0  0  0
  2  3  1  0  0  0
  2 26  1  0  0  0
  3  4  1  0  0  0
  3  5  2  0  0  0
  4 31  1  0  0  0
  4 44  1  0  0  0
  5  6  1  0  0  0
  5 32  1  0  0  0
  6  7  1  0  0  0
  6 20  1  0  0  0
  6 26  1  0  0  0
  7  8  2  0  0  0
  7 19  1  0  0  0
  8  9  1  0  0  0
  8 33  1  0  0  0
  9 10  2  0  0  0
  9 34  1  0  0  0
 10 11  1  0  0  0
 10 35  1  0  0  0
 11 12  1  0  0  0
 11 19  2  0  0  0
 12 13  2  0  0  0
 12 18  1  0  0  0
 13 14  1  0  0  0
 13 36  1  0  0  0
 14 15  2  0  0  0
 14 37  1  0  0  0
 15 16  1  0  0  0
 15 38  1  0  0  0
 16 17  1  0  0  0
 16 18  2  0  0  0
 18 39  1  0  0  0
 19 40  1  0  0  0
 20 21  2  0  0  0
 20 25  1  0  0  0
 21 22  1  0  0  0
 22 23  2  0  0  0
 22 41  1  0  0  0
 23 24  1  0  0  0
 23 42  1  0  0  0
 24 25  2  0  0  0
 24 43  1  0  0  0
 26 27  2  0  0  0
M  CHG  1   5   1
M  END
> <s_m_entry_id>
1306

> <s_m_entry_name>
Bace_CAT-13n.1

> <s_m_Source_Path>
C:\Users\yujiethinkpad\Desktop\05A\BACE

> <s_m_Source_File>
Bace_CAT-13n.sdf

> <i_m_Source_File_Index>
1

> <s_m_job_name>
align_ligands_9

> <r_user_dG.exp>
-8.543

> <r_m_Molecular_weight>
378.84439

> <i_phase_Input_Structure_Number>
31

> <i_phase_Structure_Number>
31

> <i_phase_Reference_Structure>
36

> <s_phase_Core_SMARTS>
a1aaaaa1A2(A(=A)AA=[A]2)a3aa(aaa3)-a4aaaaa4

> <r_phase_Similarity_to_Reference>
0.775452304097913

> <s_phase_Alignment_Method>
flexible least-squares core

> <s_phase_Alignment_Reason>
stereochemistry change

> <s_m_subgroup_title>
align_ligands_9

> <s_m_subgroupid>
align_ligands_9

> <b_m_subgroup_collapsed>
0

$$$$
