CAT-17i
                    3D
 Schrodinger Suite 2021-2.
 45 48  0  0  1  0            999 V2000
   12.4314  -11.4271   -2.1876 C   0  0  0  0  0  0
   12.3979  -10.1146   -1.4622 C   0  0  0  0  0  0
   11.4407   -9.8848   -0.4754 C   0  0  0  0  0  0
   11.3729   -8.7135    0.2063 N   0  0  0  0  0  0
   12.2796   -7.7501   -0.1028 C   0  0  0  0  0  0
   13.2642   -7.9093   -1.0770 C   0  0  0  0  0  0
   14.2365   -6.8055   -1.3710 C   0  0  0  0  0  0
   15.5173   -7.1082   -1.8174 C   0  0  0  0  0  0
   16.4182   -6.0855   -2.0898 C   0  0  0  0  0  0
   16.0381   -4.7600   -1.9158 C   0  0  0  0  0  0
   14.7572   -4.4573   -1.4693 C   0  0  0  0  0  0
   14.3470   -3.0267   -1.2815 C   0  0  1  0  0  0
   15.1737   -2.1566   -2.1812 C   0  0  0  0  0  0
   14.5701   -0.8776   -2.7160 C   0  0  0  0  0  0
   15.6543   -0.8197   -1.6638 C   0  0  0  0  0  0
   12.9140   -2.8362   -1.5043 N   0  3  0  0  0  0
   12.2910   -2.3866   -0.4157 C   0  0  0  0  0  0
   10.8621   -2.1005   -0.3269 N   0  0  0  0  0  0
   13.1603   -2.2367    0.5775 N   0  0  0  0  0  0
   12.8303   -1.7621    1.9182 C   0  0  0  0  0  0
   14.4966   -2.6061    0.1654 C   0  0  0  0  0  0
   15.5069   -2.5721    0.8662 O   0  0  0  0  0  0
   13.8564   -5.4800   -1.1969 C   0  0  0  0  0  0
   13.3227   -9.1168   -1.7694 C   0  0  0  0  0  0
   13.2422  -11.4190   -2.9161 H   0  0  0  0  0  0
   12.5935  -12.2335   -1.4724 H   0  0  0  0  0  0
   11.4828  -11.5825   -2.7015 H   0  0  0  0  0  0
   10.7145  -10.6485   -0.2236 H   0  0  0  0  0  0
   12.2110   -6.8214    0.4511 H   0  0  0  0  0  0
   15.8132   -8.1402   -1.9529 H   0  0  0  0  0  0
   17.4154   -6.3212   -2.4373 H   0  0  0  0  0  0
   16.7394   -3.9638   -2.1278 H   0  0  0  0  0  0
   15.8327   -2.7395   -2.8282 H   0  0  0  0  0  0
   14.8082   -0.5684   -3.7361 H   0  0  0  0  0  0
   13.5472   -0.6190   -2.4341 H   0  0  0  0  0  0
   15.3877   -0.5206   -0.6478 H   0  0  0  0  0  0
   16.6486   -0.4700   -1.9498 H   0  0  0  0  0  0
   12.4549   -3.0265   -2.3877 H   0  0  0  0  0  0
   10.2533   -2.2454   -1.1512 H   0  0  0  0  0  0
   13.7338   -1.7372    2.5274 H   0  0  0  0  0  0
   12.4070   -0.7597    1.8548 H   0  0  0  0  0  0
   12.1037   -2.4352    2.3733 H   0  0  0  0  0  0
   12.8591   -5.2443   -0.8494 H   0  0  0  0  0  0
   14.0724   -9.2776   -2.5322 H   0  0  0  0  0  0
   10.4580   -1.7528    0.5603 H   0  0  0  0  0  0
  1  2  1  0  0  0
  1 25  1  0  0  0
  1 26  1  0  0  0
  1 27  1  0  0  0
  2  3  2  0  0  0
  2 24  1  0  0  0
  3  4  1  0  0  0
  3 28  1  0  0  0
  4  5  2  0  0  0
  5  6  1  0  0  0
  5 29  1  0  0  0
  6  7  1  0  0  0
  6 24  2  0  0  0
  7  8  2  0  0  0
  7 23  1  0  0  0
  8  9  1  0  0  0
  8 30  1  0  0  0
  9 10  2  0  0  0
  9 31  1  0  0  0
 10 11  1  0  0  0
 10 32  1  0  0  0
 11 12  1  0  0  0
 11 23  2  0  0  0
 12 13  1  0  0  0
 12 16  1  0  0  0
 12 21  1  0  0  0
 13 14  1  0  0  0
 13 15  1  0  0  0
 13 33  1  0  0  0
 14 15  1  0  0  0
 14 34  1  0  0  0
 14 35  1  0  0  0
 15 36  1  0  0  0
 15 37  1  0  0  0
 16 17  2  0  0  0
 16 38  1  0  0  0
 17 18  1  0  0  0
 17 19  1  0  0  0
 18 39  1  0  0  0
 18 45  1  0  0  0
 19 20  1  0  0  0
 19 21  1  0  0  0
 20 40  1  0  0  0
 20 41  1  0  0  0
 20 42  1  0  0  0
 21 22  2  0  0  0
 23 43  1  0  0  0
 24 44  1  0  0  0
M  CHG  1  16   1
M  END
> <s_m_entry_id>
1281

> <s_m_entry_name>
Bace_CAT-17i.1

> <s_m_Source_Path>
C:\Users\yujiethinkpad\Desktop\05A\BACE

> <s_m_Source_File>
Bace_CAT-17i.sdf

> <i_m_Source_File_Index>
1

> <s_m_job_name>
align_ligands_9

> <r_user_dG.exp>
-9.473

> <r_m_Molecular_weight>
321.40542

> <i_phase_Input_Structure_Number>
6

> <i_phase_Structure_Number>
6

> <i_phase_Reference_Structure>
36

> <s_phase_Core_SMARTS>
A=A1AA=[A]A1a2aa(aaa2)-a3aaaaa3

> <r_phase_Similarity_to_Reference>
0.73160714379766

> <s_phase_Alignment_Method>
flexible least-squares core

> <s_phase_Alignment_Reason>
stereochemistry change

> <s_m_subgroup_title>
align_ligands_9

> <s_m_subgroupid>
align_ligands_9

> <b_m_subgroup_collapsed>
0

$$$$
