CAT-4a
                    3D
 Schrodinger Suite 2021-2.
 46 49  0  0  1  0            999 V2000
   12.5970   -1.7712    2.0084 C   0  0  0  0  0  0
   12.9511   -2.2079    0.6610 N   0  0  0  0  0  0
   12.0913   -2.3846   -0.3359 C   0  0  0  0  0  0
   10.6500   -2.1702   -0.2451 N   0  0  0  0  0  0
   12.7365   -2.7860   -1.4304 N   0  3  0  0  0  0
   14.1770   -2.9095   -1.2081 C   0  0  2  0  0  0
   14.9609   -1.9859   -2.0926 C   0  0  0  0  0  0
   15.7872   -1.0202   -1.5303 C   0  0  0  0  0  0
   16.5136   -0.1644   -2.3498 C   0  0  0  0  0  0
   16.4136   -0.2742   -3.7317 C   0  0  0  0  0  0
   15.5872   -1.2399   -4.2940 C   0  0  0  0  0  0
   14.8609   -2.0958   -3.4745 C   0  0  0  0  0  0
   14.6570   -4.3151   -1.4176 C   0  0  0  0  0  0
   15.9516   -4.5477   -1.8665 C   0  0  0  0  0  0
   16.3963   -5.8501   -2.0606 C   0  0  0  0  0  0
   15.5464   -6.9199   -1.8058 C   0  0  0  0  0  0
   14.2518   -6.6873   -1.3569 C   0  0  0  0  0  0
   13.3346   -7.8418   -1.0819 C   0  0  0  0  0  0
   12.3505   -7.7306   -0.1068 C   0  0  0  0  0  0
   11.5007   -8.8004    0.1480 C   0  0  0  0  0  0
   11.6348   -9.9814   -0.5724 C   0  0  0  0  0  0
   12.6188  -10.0926   -1.5475 C   0  0  0  0  0  0
   13.4687   -9.0228   -1.8023 C   0  0  0  0  0  0
   13.8071   -5.3849   -1.1628 C   0  0  0  0  0  0
   14.3044   -2.5049    0.2455 C   0  0  0  0  0  0
   15.3111   -2.4325    0.9485 O   0  0  0  0  0  0
   13.4976   -1.7116    2.6195 H   0  0  0  0  0  0
   12.1251   -0.7898    1.9600 H   0  0  0  0  0  0
   11.9038   -2.4862    2.4516 H   0  0  0  0  0  0
   10.0498   -2.3318   -1.0727 H   0  0  0  0  0  0
   12.2882   -2.9845   -2.3174 H   0  0  0  0  0  0
   15.8651   -0.9346   -0.4545 H   0  0  0  0  0  0
   17.1569    0.5875   -1.9120 H   0  0  0  0  0  0
   16.9791    0.3921   -4.3698 H   0  0  0  0  0  0
   15.5094   -1.3255   -5.3699 H   0  0  0  0  0  0
   14.2175   -2.8476   -3.9123 H   0  0  0  0  0  0
   16.6133   -3.7149   -2.0648 H   0  0  0  0  0  0
   17.4042   -6.0312   -2.4100 H   0  0  0  0  0  0
   15.8927   -7.9338   -1.9569 H   0  0  0  0  0  0
   12.2461   -6.8112    0.4541 H   0  0  0  0  0  0
   10.7345   -8.7138    0.9072 H   0  0  0  0  0  0
   10.9731  -10.8142   -0.3740 H   0  0  0  0  0  0
   12.7233  -11.0120   -2.1084 H   0  0  0  0  0  0
   14.2348   -9.1094   -2.5615 H   0  0  0  0  0  0
   12.7992   -5.2038   -0.8134 H   0  0  0  0  0  0
   10.2284   -1.8568    0.6467 H   0  0  0  0  0  0
  1  2  1  0  0  0
  1 27  1  0  0  0
  1 28  1  0  0  0
  1 29  1  0  0  0
  2  3  1  0  0  0
  2 25  1  0  0  0
  3  4  1  0  0  0
  3  5  2  0  0  0
  4 30  1  0  0  0
  4 46  1  0  0  0
  5  6  1  0  0  0
  5 31  1  0  0  0
  6  7  1  0  0  0
  6 13  1  0  0  0
  6 25  1  0  0  0
  7  8  2  0  0  0
  7 12  1  0  0  0
  8  9  1  0  0  0
  8 32  1  0  0  0
  9 10  2  0  0  0
  9 33  1  0  0  0
 10 11  1  0  0  0
 10 34  1  0  0  0
 11 12  2  0  0  0
 11 35  1  0  0  0
 12 36  1  0  0  0
 13 14  2  0  0  0
 13 24  1  0  0  0
 14 15  1  0  0  0
 14 37  1  0  0  0
 15 16  2  0  0  0
 15 38  1  0  0  0
 16 17  1  0  0  0
 16 39  1  0  0  0
 17 18  1  0  0  0
 17 24  2  0  0  0
 18 19  2  0  0  0
 18 23  1  0  0  0
 19 20  1  0  0  0
 19 40  1  0  0  0
 20 21  2  0  0  0
 20 41  1  0  0  0
 21 22  1  0  0  0
 21 42  1  0  0  0
 22 23  2  0  0  0
 22 43  1  0  0  0
 23 44  1  0  0  0
 24 45  1  0  0  0
 25 26  2  0  0  0
M  CHG  1   5   1
M  END
> <s_m_entry_id>
1283

> <s_m_entry_name>
Bace_CAT-4a.1

> <s_m_Source_Path>
C:\Users\yujiethinkpad\Desktop\05A\BACE

> <s_m_Source_File>
Bace_CAT-4a.sdf

> <i_m_Source_File_Index>
1

> <s_m_job_name>
align_ligands_9

> <r_user_dG.exp>
-7.933

> <r_m_Molecular_weight>
342.4242

> <i_phase_Input_Structure_Number>
8

> <i_phase_Structure_Number>
8

> <i_phase_Reference_Structure>
36

> <s_phase_Core_SMARTS>
a1aaaaa1A2(A(=A)AA=[A]2)a3aa(aaa3)-a4aaaaa4

> <r_phase_Similarity_to_Reference>
0.791733446934003

> <s_phase_Alignment_Method>
flexible least-squares core

> <s_phase_Alignment_Reason>
stereochemistry change

> <s_m_subgroup_title>
align_ligands_9

> <s_m_subgroupid>
align_ligands_9

> <b_m_subgroup_collapsed>
0

$$$$
