CAT-4p
                    3D
 Schrodinger Suite 2021-2.
 45 48  0  0  1  0            999 V2000
   11.8142   -2.0699    1.2090 C   0  0  0  0  0  0
   12.5406   -2.3962   -0.0218 N   0  0  0  0  0  0
   12.0506   -2.4210   -1.2721 C   0  0  0  0  0  0
   10.8098   -2.0898   -1.6419 N   0  0  0  0  0  0
   12.9706   -2.8061   -2.1567 N   0  3  0  0  0  0
   14.2803   -2.9851   -1.5403 C   0  0  2  0  0  0
   15.1569   -1.8182   -2.0671 C   0  0  0  0  0  0
   14.9581   -0.4782   -1.6303 C   0  0  0  0  0  0
   15.6838    0.5955   -2.1835 C   0  0  0  0  0  0
   16.6205    0.3594   -3.2015 C   0  0  0  0  0  0
   16.8071   -0.9502   -3.6726 C   0  0  0  0  0  0
   16.0733   -2.0132   -3.1192 C   0  0  0  0  0  0
   14.7710   -4.4527   -1.6577 C   0  0  0  0  0  0
   16.1358   -4.7972   -1.8058 C   0  0  0  0  0  0
   16.5223   -6.1418   -1.9029 C   0  0  0  0  0  0
   15.5817   -7.1661   -1.7126 C   0  0  0  0  0  0
   14.2257   -6.8743   -1.4496 C   0  0  0  0  0  0
   13.2777   -7.9462   -1.0433 C   0  0  0  0  0  0
   13.7311   -9.1251   -0.4015 C   0  0  0  0  0  0
   12.9278  -10.0845    0.1022 N   0  0  0  0  0  0
   11.5977   -9.9186   -0.0120 C   0  0  0  0  0  0
   11.0209   -8.8174   -0.6620 C   0  0  0  0  0  0
    9.3052   -8.6772   -0.7912 Cl  0  0  0  0  0  0
   11.8757   -7.8304   -1.1889 C   0  0  0  0  0  0
   13.8362   -5.5130   -1.4954 C   0  0  0  0  0  0
   13.9170   -2.7583   -0.0617 C   0  0  0  0  0  0
   14.6507   -2.8412    0.9309 O   0  0  0  0  0  0
   11.4086   -2.9860    1.6337 H   0  0  0  0  0  0
   12.4731   -1.6198    1.9513 H   0  0  0  0  0  0
   10.9972   -1.3720    1.0110 H   0  0  0  0  0  0
   10.5546   -2.1560   -2.6276 H   0  0  0  0  0  0
   12.8205   -2.8972   -3.1611 H   0  0  0  0  0  0
   14.2253   -0.2297   -0.8795 H   0  0  0  0  0  0
   15.5082    1.6036   -1.8398 H   0  0  0  0  0  0
   17.1660    1.1824   -3.6383 H   0  0  0  0  0  0
   17.4850   -1.1531   -4.4848 H   0  0  0  0  0  0
   16.2046   -2.9917   -3.5372 H   0  0  0  0  0  0
   16.9185   -4.0533   -1.8576 H   0  0  0  0  0  0
   17.5579   -6.3926   -2.0851 H   0  0  0  0  0  0
   15.9362   -8.1859   -1.7320 H   0  0  0  0  0  0
   14.7843   -9.2832   -0.2197 H   0  0  0  0  0  0
   10.9781  -10.6890    0.4198 H   0  0  0  0  0  0
   11.4474   -6.9789   -1.6886 H   0  0  0  0  0  0
   12.8030   -5.2722   -1.3087 H   0  0  0  0  0  0
   10.0516   -1.8672   -0.9975 H   0  0  0  0  0  0
  1  2  1  0  0  0
  1 28  1  0  0  0
  1 29  1  0  0  0
  1 30  1  0  0  0
  2  3  1  0  0  0
  2 26  1  0  0  0
  3  4  1  0  0  0
  3  5  2  0  0  0
  4 31  1  0  0  0
  4 45  1  0  0  0
  5  6  1  0  0  0
  5 32  1  0  0  0
  6  7  1  0  0  0
  6 13  1  0  0  0
  6 26  1  0  0  0
  7  8  2  0  0  0
  7 12  1  0  0  0
  8  9  1  0  0  0
  8 33  1  0  0  0
  9 10  2  0  0  0
  9 34  1  0  0  0
 10 11  1  0  0  0
 10 35  1  0  0  0
 11 12  2  0  0  0
 11 36  1  0  0  0
 12 37  1  0  0  0
 13 14  2  0  0  0
 13 25  1  0  0  0
 14 15  1  0  0  0
 14 38  1  0  0  0
 15 16  2  0  0  0
 15 39  1  0  0  0
 16 17  1  0  0  0
 16 40  1  0  0  0
 17 18  1  0  0  0
 17 25  2  0  0  0
 18 19  2  0  0  0
 18 24  1  0  0  0
 19 20  1  0  0  0
 19 41  1  0  0  0
 20 21  2  0  0  0
 21 22  1  0  0  0
 21 42  1  0  0  0
 22 23  1  0  0  0
 22 24  2  0  0  0
 24 43  1  0  0  0
 25 44  1  0  0  0
 26 27  2  0  0  0
M  CHG  1   5   1
M  END
> <s_m_entry_id>
1293

> <s_m_entry_name>
Bace_CAT-4p.1

> <s_m_Source_Path>
C:\Users\yujiethinkpad\Desktop\05A\BACE

> <s_m_Source_File>
Bace_CAT-4p.sdf

> <i_m_Source_File_Index>
1

> <s_m_job_name>
align_ligands_9

> <r_user_dG.exp>
-10.083

> <r_m_Molecular_weight>
377.85681

> <i_phase_Input_Structure_Number>
18

> <i_phase_Structure_Number>
18

> <i_phase_Reference_Structure>
36

> <s_phase_Core_SMARTS>
a1aaaaa1A2(A(=A)AA=[A]2)a3aa(aaa3)-a4aaaaa4

> <r_phase_Similarity_to_Reference>
0.791069050084192

> <s_phase_Alignment_Method>
flexible least-squares core

> <s_phase_Alignment_Reason>
stereochemistry change

> <s_m_subgroup_title>
align_ligands_9

> <s_m_subgroupid>
align_ligands_9

> <b_m_subgroup_collapsed>
0

$$$$
