CAT-13j
                    3D
 Schrodinger Suite 2021-2.
 45 48  0  0  1  0            999 V2000
   12.7942   -1.8132    2.1333 C   0  0  0  0  0  0
   13.0808   -2.2261    0.7625 N   0  0  0  0  0  0
   12.1741   -2.3719   -0.1972 C   0  0  0  0  0  0
   10.7413   -2.1423   -0.0360 N   0  0  0  0  0  0
   12.7635   -2.7582   -1.3280 N   0  3  0  0  0  0
   14.2109   -2.9035   -1.1747 C   0  0  1  0  0  0
   14.6627   -4.3101   -1.4342 C   0  0  0  0  0  0
   15.9324   -4.5488   -1.9467 C   0  0  0  0  0  0
   16.3510   -5.8520   -2.1871 C   0  0  0  0  0  0
   15.5000   -6.9166   -1.9152 C   0  0  0  0  0  0
   14.2303   -6.6780   -1.4027 C   0  0  0  0  0  0
   13.3118   -7.8270   -1.1092 C   0  0  0  0  0  0
   12.3702   -7.7340   -0.0887 C   0  0  0  0  0  0
   11.5186   -8.8028    0.1815 C   0  0  0  0  0  0
   11.6010   -9.9739   -0.5664 C   0  0  0  0  0  0
   12.5416  -10.0676   -1.5865 C   0  0  0  0  0  0
   12.6545  -11.5137   -2.5215 Cl  0  0  0  0  0  0
   13.3923   -8.9990   -1.8558 C   0  0  0  0  0  0
   13.8117   -5.3747   -1.1623 C   0  0  0  0  0  0
   14.9654   -1.9711   -2.0755 C   0  0  0  0  0  0
   15.3148   -0.6937   -1.6409 C   0  0  0  0  0  0
   16.0164    0.1559   -2.4959 C   0  0  0  0  0  0
   16.3512   -0.2983   -3.7698 C   0  0  0  0  0  0
   15.9687   -1.5880   -4.1360 C   0  0  0  0  0  0
   15.2853   -2.4257   -3.3133 N   0  0  0  0  0  0
   14.4097   -2.5306    0.2794 C   0  0  0  0  0  0
   15.4483   -2.4848    0.9368 O   0  0  0  0  0  0
   13.7225   -1.7770    2.7034 H   0  0  0  0  0  0
   12.3333   -0.8255    2.1263 H   0  0  0  0  0  0
   12.1129   -2.5289    2.5934 H   0  0  0  0  0  0
   10.1020   -2.2795   -0.8382 H   0  0  0  0  0  0
   12.2726   -2.9330   -2.1973 H   0  0  0  0  0  0
   16.5950   -3.7199   -2.1584 H   0  0  0  0  0  0
   17.3395   -6.0379   -2.5861 H   0  0  0  0  0  0
   15.8259   -7.9313   -2.1024 H   0  0  0  0  0  0
   12.2994   -6.8272    0.4977 H   0  0  0  0  0  0
   10.7892   -8.7234    0.9763 H   0  0  0  0  0  0
   10.9410  -10.8038   -0.3579 H   0  0  0  0  0  0
   14.1199   -9.0819   -2.6507 H   0  0  0  0  0  0
   12.8232   -5.1889   -0.7633 H   0  0  0  0  0  0
   15.0430   -0.3651   -0.6471 H   0  0  0  0  0  0
   16.2959    1.1505   -2.1756 H   0  0  0  0  0  0
   16.8948    0.3333   -4.4591 H   0  0  0  0  0  0
   16.2159   -1.9670   -5.1205 H   0  0  0  0  0  0
   10.3651   -1.8423    0.8803 H   0  0  0  0  0  0
  1  2  1  0  0  0
  1 28  1  0  0  0
  1 29  1  0  0  0
  1 30  1  0  0  0
  2  3  1  0  0  0
  2 26  1  0  0  0
  3  4  1  0  0  0
  3  5  2  0  0  0
  4 31  1  0  0  0
  4 45  1  0  0  0
  5  6  1  0  0  0
  5 32  1  0  0  0
  6  7  1  0  0  0
  6 20  1  0  0  0
  6 26  1  0  0  0
  7  8  2  0  0  0
  7 19  1  0  0  0
  8  9  1  0  0  0
  8 33  1  0  0  0
  9 10  2  0  0  0
  9 34  1  0  0  0
 10 11  1  0  0  0
 10 35  1  0  0  0
 11 12  1  0  0  0
 11 19  2  0  0  0
 12 13  2  0  0  0
 12 18  1  0  0  0
 13 14  1  0  0  0
 13 36  1  0  0  0
 14 15  2  0  0  0
 14 37  1  0  0  0
 15 16  1  0  0  0
 15 38  1  0  0  0
 16 17  1  0  0  0
 16 18  2  0  0  0
 18 39  1  0  0  0
 19 40  1  0  0  0
 20 21  2  0  0  0
 20 25  1  0  0  0
 21 22  1  0  0  0
 21 41  1  0  0  0
 22 23  2  0  0  0
 22 42  1  0  0  0
 23 24  1  0  0  0
 23 43  1  0  0  0
 24 25  2  0  0  0
 24 44  1  0  0  0
 26 27  2  0  0  0
M  CHG  1   5   1
M  END
> <s_m_entry_id>
1303

> <s_m_entry_name>
Bace_CAT-13j.1

> <s_m_Source_Path>
C:\Users\yujiethinkpad\Desktop\05A\BACE

> <s_m_Source_File>
Bace_CAT-13j.sdf

> <i_m_Source_File_Index>
1

> <s_m_job_name>
align_ligands_9

> <r_user_dG.exp>
-8.733

> <r_m_Molecular_weight>
377.85681

> <i_phase_Input_Structure_Number>
28

> <i_phase_Structure_Number>
28

> <i_phase_Reference_Structure>
36

> <s_phase_Core_SMARTS>
a1aaaaa1A2(A(=A)AA=[A]2)a3aa(aaa3)-a4aaaaa4

> <r_phase_Similarity_to_Reference>
0.815721003943937

> <s_phase_Alignment_Method>
flexible least-squares core

> <s_phase_Alignment_Reason>
stereochemistry change

> <s_m_subgroup_title>
align_ligands_9

> <s_m_subgroupid>
align_ligands_9

> <b_m_subgroup_collapsed>
0

$$$$
