@<TRIPOS>MOLECULE
32
54   57    1
SMALL
USER_CHARGES


@<TRIPOS>ATOM
      1 C1          1.3901   29.1077    6.7935 C.ar      1 UNK         0.0000 
      2 C2         -1.6911   31.9130    8.0794 C.ar      1 UNK         0.0000 
      3 C3         -0.7437   26.3748    8.8319 C.3       1 UNK         0.0000 
      4 C4         -1.3142   25.5567    9.9914 C.3       1 UNK         0.0000 
      5 C5         -1.1214   24.0589    9.6854 C.3       1 UNK         0.0000 
      6 C6         -1.5824   23.1795   10.8502 C.3       1 UNK         0.0000 
      7 C7         -0.8551   23.5463   12.1491 C.3       1 UNK         0.0000 
      8 C8         -1.0780   25.0277   12.4857 C.3       1 UNK         0.0000 
      9 C9         -0.6321   25.9351   11.3273 C.3       1 UNK         0.0000 
     10 C10         4.6903   25.7129    5.8380 C.ar      1 UNK         0.0000 
     11 C11         4.6667   25.1395    7.1233 C.ar      1 UNK         0.0000 
     12 C12         3.9496   25.7658    8.1576 C.ar      1 UNK         0.0000 
     13 C13         3.2460   26.9556    7.8985 C.ar      1 UNK         0.0000 
     14 N14         0.6302   28.2313    7.4508 N.ar      1 UNK         0.0000 
     15 C15        -0.4898   28.6252    8.0923 C.ar      1 UNK         0.0000 
     16 O16        -1.1796   27.7315    8.8832 O.3       1 UNK         0.0000 
     17 C17        -0.8660   29.9818    8.0000 C.ar      1 UNK         0.0000 
     18 N18        -1.9251   30.7129    8.5212 N.2       1 UNK         0.0000 
     19 N19        -0.5542   32.0464    7.3306 N.pl3     1 UNK         0.0000 
     20 C20        -0.0249   30.7863    7.2610 C.ar      1 UNK         0.0000 
     21 N21         1.1172   30.4049    6.6113 N.ar      1 UNK         0.0000 
     22 N22         2.5827   28.6807    6.3360 N.pl3     1 UNK         0.0000 
     23 C23         3.2365   27.5251    6.6032 C.ar      1 UNK         0.0000 
     24 C24         3.9871   26.9068    5.5819 C.ar      1 UNK         0.0000 
     25 H25        -2.3542   32.7337    8.2866 H         1 UNK         0.0000 
     26 H26         0.3421   26.2813    8.8885 H         1 UNK         0.0000 
     27 H27        -1.0533   25.9544    7.8735 H         1 UNK         0.0000 
     28 H28        -2.3846   25.7536   10.0698 H         1 UNK         0.0000 
     29 H29        -1.6745   23.7903    8.7850 H         1 UNK         0.0000 
     30 H30        -0.0713   23.8531    9.4740 H         1 UNK         0.0000 
     31 H31        -2.6489   23.3294   10.9949 H         1 UNK         0.0000 
     32 H32        -1.4335   22.1247   10.6147 H         1 UNK         0.0000 
     33 H33        -1.2175   22.9242   12.9680 H         1 UNK         0.0000 
     34 H34         0.2126   23.3446   12.0504 H         1 UNK         0.0000 
     35 H35        -2.1337   25.2025   12.7004 H         1 UNK         0.0000 
     36 H36        -0.5350   25.2900   13.3929 H         1 UNK         0.0000 
     37 H37         0.4518   25.8639   11.2223 H         1 UNK         0.0000 
     38 H38        -0.8463   26.9766   11.5731 H         1 UNK         0.0000 
     39 H39         5.2554   25.2427    5.0475 H         1 UNK         0.0000 
     40 H40         2.7083   27.4238    8.7079 H         1 UNK         0.0000 
     41 H41        -0.1784   32.8770    6.8845 H         1 UNK         0.0000 
     42 H42         3.0167   29.2655    5.6333 H         1 UNK         0.0000 
     43 H43         4.0234   27.3389    4.5933 H         1 UNK         0.0000 
     44 S44         5.4311   23.8790    7.4001 S.o2      1 UNK         0.0000 
     45 O45         5.8108   23.2938    6.1199 O.2       1 UNK         0.0000 
     46 O46         6.4234   24.1721    8.4274 O.2       1 UNK         0.0000 
     47 N47         4.3520   22.7432    8.1190 N.pl3     1 UNK         0.0000 
     48 H48         3.7946   22.1535    7.5176 H         1 UNK         0.0000 
     49 H49         4.2201   22.7635    9.1201 H         1 UNK         0.0000 
     50 O50         3.9378   25.2278    9.4110 O.3       1 UNK         0.0000 
     51 C51         3.1574   26.0269   10.2715 C.3       1 UNK         0.0000 
     52 H52         3.1538   25.5780   11.2963 H         1 UNK         0.0000 
     53 H53         3.5899   27.0578   10.3175 H         1 UNK         0.0000 
     54 H54         2.1092   26.0792    9.8835 H         1 UNK         0.0000 
@<TRIPOS>BOND
     1    1   14 ar   
     2    1   21 ar   
     3    1   22 1    
     4    2   18 ar   
     5    2   19 ar   
     6    2   25 1    
     7    3    4 1    
     8    3   16 1    
     9    3   26 1    
    10    3   27 1    
    11    4    5 1    
    12    4    9 1    
    13    4   28 1    
    14    5    6 1    
    15    5   29 1    
    16    5   30 1    
    17    6    7 1    
    18    6   31 1    
    19    6   32 1    
    20    7    8 1    
    21    7   33 1    
    22    7   34 1    
    23    8    9 1    
    24    8   35 1    
    25    8   36 1    
    26    9   37 1    
    27    9   38 1    
    28   10   11 ar   
    29   10   24 ar   
    30   10   39 1    
    31   11   12 ar   
    32   11   44 1    
    33   12   13 ar   
    34   12   50 1    
    35   13   23 ar   
    36   13   40 1    
    37   14   15 ar   
    38   15   16 1    
    39   15   17 ar   
    40   17   18 ar   
    41   17   20 ar   
    42   19   20 ar   
    43   19   41 1    
    44   20   21 ar   
    45   22   23 1    
    46   22   42 1    
    47   23   24 ar   
    48   24   43 1    
    49   44   45 2    
    50   44   46 2    
    51   44   47 1    
    52   47   49 1    
    53   47   48 1    
    54   50   51 1    
    55   51   52 1    
    56   51   53 1    
    57   51   54 1    
@<TRIPOS>SUBSTRUCTURE
     1 UNK         1 GROUP             0       ****    0 ROOT    
