18625-1
                    3D
 Schrodinger Suite 2021-2.
 38 39  0  0  1  0            999 V2000
   24.2720   12.3493   30.2001 C   0  0  0  0  0  0
   23.5224   11.0412   30.4516 C   0  0  0  0  0  0
   22.3875   11.3014   31.2696 O   0  0  0  0  0  0
   21.5846   10.2423   31.6499 C   0  0  0  0  0  0
   21.8981    9.0140   31.1856 N   0  0  0  0  0  0
   21.1060    7.9583   31.4425 C   0  0  0  0  0  0
   19.9312    8.1121   32.2046 C   0  0  0  0  0  0
   19.6065    9.3746   32.7132 C   0  0  0  0  0  0
   18.4203    9.5084   33.4230 N   0  0  0  0  0  0
   20.4405   10.4685   32.4325 C   0  0  0  0  0  0
   20.0993   11.8025   32.8697 C   0  0  0  0  0  0
   19.8200   12.8606   33.2188 N   0  0  0  0  0  0
   21.5304    6.7180   30.9137 N   0  0  0  0  0  0
   21.0658    5.4778   31.0654 C   0  0  0  0  0  0
   20.0316    5.1991   31.6588 O   0  0  0  0  0  0
   21.8634    4.3936   30.3397 C   0  0  0  0  0  0
   23.3066    4.2535   30.8139 C   0  0  0  0  0  0
   24.3576    5.0920   30.3678 C   0  0  0  0  0  0
   24.1013    6.3934   29.2759 Cl  0  0  0  0  0  0
   25.6739    4.8717   30.7980 C   0  0  0  0  0  0
   25.9599    3.8163   31.6695 C   0  0  0  0  0  0
   24.9258    2.9780   32.1121 C   0  0  0  0  0  0
   23.6099    3.1945   31.6840 C   0  0  0  0  0  0
   25.1458   12.1863   29.5701 H   0  0  0  0  0  0
   24.6161   12.7884   31.1358 H   0  0  0  0  0  0
   23.6307   13.0773   29.7041 H   0  0  0  0  0  0
   23.2101   10.6086   29.5000 H   0  0  0  0  0  0
   24.1894   10.3304   30.9427 H   0  0  0  0  0  0
   19.2689    7.2878   32.4153 H   0  0  0  0  0  0
   18.0509   10.4239   33.6462 H   0  0  0  0  0  0
   17.7604    8.7481   33.4783 H   0  0  0  0  0  0
   22.3658    6.7698   30.3544 H   0  0  0  0  0  0
   21.3494    3.4372   30.4469 H   0  0  0  0  0  0
   21.8490    4.6101   29.2709 H   0  0  0  0  0  0
   26.4718    5.5136   30.4537 H   0  0  0  0  0  0
   26.9744    3.6456   31.9995 H   0  0  0  0  0  0
   25.1441    2.1573   32.7789 H   0  0  0  0  0  0
   22.8173    2.5360   32.0175 H   0  0  0  0  0  0
  1  2  1  0  0  0
  1 24  1  0  0  0
  1 25  1  0  0  0
  1 26  1  0  0  0
  2  3  1  0  0  0
  2 27  1  0  0  0
  2 28  1  0  0  0
  3  4  1  0  0  0
  4 10  1  0  0  0
  4  5  2  0  0  0
  5  6  1  0  0  0
  6  7  2  0  0  0
  6 13  1  0  0  0
  7  8  1  0  0  0
  7 29  1  0  0  0
  8  9  1  0  0  0
  8 10  2  0  0  0
  9 30  1  0  0  0
  9 31  1  0  0  0
 10 11  1  0  0  0
 11 12  3  0  0  0
 13 14  1  0  0  0
 13 32  1  0  0  0
 14 15  2  0  0  0
 14 16  1  0  0  0
 16 17  1  0  0  0
 16 33  1  0  0  0
 16 34  1  0  0  0
 17 23  1  0  0  0
 17 18  2  0  0  0
 18 19  1  0  0  0
 18 20  1  0  0  0
 20 21  2  0  0  0
 20 35  1  0  0  0
 21 22  1  0  0  0
 21 36  1  0  0  0
 22 23  2  0  0  0
 22 37  1  0  0  0
 23 38  1  0  0  0
M  END
> <i_m_stars>
0

> <s_m_entry_id>
2966

> <s_m_entry_name>
Jnk1_18625-1.1

> <s_m_Source_Path>
C:\Users\yujiethinkpad\Desktop\05A\JNK1

> <s_m_Source_File>
Jnk1_18625-1.sdf

> <i_m_Source_File_Index>
1

> <s_i_glide_gridfile>
glide-grid_JNK1

> <r_i_docking_score>
-8.02077597902934

> <r_i_glide_ecoul>
-6.52569055557251

> <r_i_glide_einternal>
7.97347545623779

> <r_i_glide_emodel>
-48.2382330472985

> <r_i_glide_energy>
-42.5621628761292

> <r_i_glide_erotb>
0.687793016403273

> <r_i_glide_esite>
0

> <r_i_glide_evdw>
-36.0364723205566

> <r_i_glide_gscore>
-8.02077597902934

> <r_i_glide_hbond>
-0.3182244229883

> <r_i_glide_ligand_efficiency>
-0.34872939039258

> <r_i_glide_ligand_efficiency_ln>
-1.93949636010487

> <r_i_glide_ligand_efficiency_sa>
-0.991739997204693

> <r_i_glide_lipo>
-3.55052382784821

> <r_i_glide_metal>
0

> <r_i_glide_rewards>
-2.05914354523239

> <i_i_glide_confnum>
10

> <i_i_glide_lignum>
15

> <i_i_glide_posenum>
15

> <i_i_glide_rotatable_bonds>
6

> <r_i_glide_eff_state_penalty>
0

> <s_m_job_name>
glide-dock_SP_other_4988

> <r_user_dG.exp>
-8.105004

> <r_m_Molecular_weight>
330.77655

> <r_glide_shape_similarity>
0.868435919284821

> <s_m_subgroup_title>
glide-dock_SP_other_4988_lib1

> <s_m_subgroupid>
glide-dock_SP_other_4988_lib1

> <b_m_subgroup_collapsed>
0

$$$$
