@<TRIPOS>MOLECULE
/home/yujie/leadopt/data/result/selection/WDR5/lig_12.sdf:1
73   77    1
SMALL
USER_CHARGES


@<TRIPOS>ATOM
      1 O1         12.6343   20.4204   23.8266 O.2       1 UNK         0.0000 
      2 C2         12.1261   19.3164   24.0419 C.2       1 UNK         0.0000 
      3 N3         12.2752   18.6900   25.2499 N.am      1 UNK         0.0000 
      4 C4         13.1660   19.2735   26.2735 C.3       1 UNK         0.0000 
      5 C5         14.5942   18.7280   26.3510 C.ar      1 UNK         0.0000 
      6 C6         15.2463   18.7422   27.5869 C.ar      1 UNK         0.0000 
      7 C7         16.5598   18.2963   27.7192 C.ar      1 UNK         0.0000 
      8 O8         17.1212   18.3704   28.9804 O.3       1 UNK         0.0000 
      9 C9         18.4841   17.9927   29.1533 C.3       1 UNK         0.0000 
     10 C10        17.2253   17.8155   26.5835 C.ar      1 UNK         0.0000 
     11 C11        16.5977   17.7819   25.3398 C.ar      1 UNK         0.0000 
     12 O12        17.3639   17.3182   24.2905 O.3       1 UNK         0.0000 
     13 C13        16.7776   17.2054   23.0048 C.3       1 UNK         0.0000 
     14 C14        15.2743   18.2378   25.2299 C.ar      1 UNK         0.0000 
     15 C15        11.7566   17.3320   25.5261 C.3       1 UNK         0.0000 
     16 C16        10.4385   17.0346   24.7887 C.3       1 UNK         0.0000 
     17 C17        10.4892   17.4770   23.3357 C.ar      1 UNK         0.0000 
     18 C18        11.2751   18.5960   23.0124 C.ar      1 UNK         0.0000 
     19 C19        11.2559   19.1113   21.7070 C.ar      1 UNK         0.0000 
     20 C20        10.5403   18.4695   20.6958 C.ar      1 UNK         0.0000 
     21 C21        10.5726   18.9964   19.2632 C.3       1 UNK         0.0000 
     22 N22        11.7335   18.5495   18.4898 N.pl3     1 UNK         0.0000 
     23 C23        12.6723   19.3462   17.8503 C.ar      1 UNK         0.0000 
     24 N24        13.5814   18.5217   17.2042 N.pl3     1 UNK         0.0000 
     25 C25        14.7284   18.9503   16.4176 C.3       1 UNK         0.0000 
     26 C26        13.1984   17.2055   17.4326 C.ar      1 UNK         0.0000 
     27 C27        12.0585   17.2261   18.2244 C.ar      1 UNK         0.0000 
     28 N28        12.6826   20.6991   17.8258 N.pl3     1 UNK         0.0000 
     29 C29         9.8142   17.3226   21.0021 C.ar      1 UNK         0.0000 
     30 C30         9.7808   16.8268   22.3076 C.ar      1 UNK         0.0000 
     31 C31         9.0094   15.5725   22.5238 C.ar      1 UNK         0.0000 
     32 C32         9.5378   14.3238   22.8228 C.ar      1 UNK         0.0000 
     33 C33        10.9530   13.8590   23.0822 C.3       1 UNK         0.0000 
     34 N34         8.4578   13.4784   22.8169 N.pl3     1 UNK         0.0000 
     35 C35         8.4453   12.0411   23.0639 C.3       1 UNK         0.0000 
     36 N36         7.2982   14.1200   22.6308 N.2       1 UNK         0.0000 
     37 C37         7.6169   15.3824   22.4646 C.ar      1 UNK         0.0000 
     38 C38         6.5187   16.3963   22.2314 C.3       1 UNK         0.0000 
     39 H39        13.2266   20.3585   26.1729 H         1 UNK         0.0000 
     40 H40        12.6901   19.1076   27.2406 H         1 UNK         0.0000 
     41 H41        14.7385   19.1254   28.4594 H         1 UNK         0.0000 
     42 H42        18.7708   18.1364   30.1944 H         1 UNK         0.0000 
     43 H43        18.6433   16.9410   28.9114 H         1 UNK         0.0000 
     44 H44        19.1502   18.6035   28.5419 H         1 UNK         0.0000 
     45 H45        18.2445   17.4676   26.6430 H         1 UNK         0.0000 
     46 H46        17.5128   16.8062   22.3052 H         1 UNK         0.0000 
     47 H47        15.9301   16.5199   23.0259 H         1 UNK         0.0000 
     48 H48        16.4522   18.1754   22.6262 H         1 UNK         0.0000 
     49 H49        14.7782   18.2376   24.2733 H         1 UNK         0.0000 
     50 H50        12.4784   16.6231   25.1113 H         1 UNK         0.0000 
     51 H51        11.7466   17.0946   26.5916 H         1 UNK         0.0000 
     52 H52         9.6213   17.5502   25.2955 H         1 UNK         0.0000 
     53 H53        10.2105   15.9747   24.8841 H         1 UNK         0.0000 
     54 H54        11.7975   20.0100   21.4608 H         1 UNK         0.0000 
     55 H55         9.6742   18.6991   18.7210 H         1 UNK         0.0000 
     56 H56        10.5474   20.0866   19.2791 H         1 UNK         0.0000 
     57 H57        15.2727   19.7303   16.9483 H         1 UNK         0.0000 
     58 H58        15.4070   18.1185   16.2415 H         1 UNK         0.0000 
     59 H59        14.3802   19.3265   15.4531 H         1 UNK         0.0000 
     60 H60        13.7596   16.3777   17.0184 H         1 UNK         0.0000 
     61 H61        11.4477   16.4205   18.6126 H         1 UNK         0.0000 
     62 H62        12.9617   21.1948   16.9874 H         1 UNK         0.0000 
     63 H63         9.2722   16.8108   20.2182 H         1 UNK         0.0000 
     64 H64        11.6375   14.6846   23.2698 H         1 UNK         0.0000 
     65 H65        11.0148   13.1885   23.9411 H         1 UNK         0.0000 
     66 H66        11.3410   13.3187   22.2277 H         1 UNK         0.0000 
     67 H67         8.4682   11.8590   24.1397 H         1 UNK         0.0000 
     68 H68         9.3226   11.5800   22.6049 H         1 UNK         0.0000 
     69 H69         7.5499   11.5882   22.6362 H         1 UNK         0.0000 
     70 H70         6.9132   17.3804   21.9785 H         1 UNK         0.0000 
     71 H71         5.8460   16.1008   21.4269 H         1 UNK         0.0000 
     72 H72         5.9068   16.5188   23.1233 H         1 UNK         0.0000 
     73 H73        12.3524   21.2297   18.6236 H         1 UNK         0.0000 
@<TRIPOS>BOND
     1    1    2 2    
     2    2   18 1    
     3    2    3 am   BACKBONE|DICT|INTERRES
     4    3    4 1    
     5    3   15 1    
     6    4    5 1    
     7    4   39 1    
     8    4   40 1    
     9    5   14 ar   
    10    5    6 ar   
    11    6    7 ar   
    12    6   41 1    
    13    7    8 1    
    14    7   10 ar   
    15    8    9 1    
    16    9   42 1    
    17    9   43 1    
    18    9   44 1    
    19   10   11 ar   
    20   10   45 1    
    21   11   12 1    
    22   11   14 ar   
    23   12   13 1    
    24   13   46 1    
    25   13   47 1    
    26   13   48 1    
    27   14   49 1    
    28   15   16 1    
    29   15   50 1    
    30   15   51 1    
    31   16   17 1    
    32   16   52 1    
    33   16   53 1    
    34   17   30 ar   
    35   17   18 ar   
    36   18   19 ar   
    37   19   20 ar   
    38   19   54 1    
    39   20   21 1    
    40   20   29 ar   
    41   21   22 1    
    42   21   55 1    
    43   21   56 1    
    44   22   27 ar   
    45   22   23 ar   
    46   23   24 ar   
    47   23   28 1    
    48   24   25 1    
    49   24   26 ar   
    50   25   57 1    
    51   25   58 1    
    52   25   59 1    
    53   26   27 ar   
    54   26   60 1    
    55   27   61 1    
    56   28   62 1    
    57   28   73 1    
    58   29   30 ar   
    59   29   63 1    
    60   30   31 1    
    61   31   37 ar   
    62   31   32 ar   
    63   32   33 1    
    64   32   34 ar   
    65   33   64 1    
    66   33   65 1    
    67   33   66 1    
    68   34   35 1    
    69   34   36 ar   
    70   35   67 1    
    71   35   68 1    
    72   35   69 1    
    73   36   37 ar   
    74   37   38 1    
    75   38   70 1    
    76   38   71 1    
    77   38   72 1    
@<TRIPOS>SUBSTRUCTURE
     1 UNK         1 GROUP             0       ****    0 ROOT    
