@<TRIPOS>MOLECULE
/home/yujie/leadopt/data/result/selection/WDR5/lig_39.sdf:1
65   69    1
SMALL
USER_CHARGES


@<TRIPOS>ATOM
      1 O1         12.5921   20.1610   23.8265 O.2       1 UNK         0.0000 
      2 C2         12.0789   19.0541   23.9910 C.2       1 UNK         0.0000 
      3 N3         12.2487   18.3433   25.1576 N.am      1 UNK         0.0000 
      4 C4         13.2254   18.7692   26.1951 C.3       1 UNK         0.0000 
      5 C5         13.0582   20.2204   26.7116 C.3       1 UNK         0.0000 
      6 C6         14.6904   18.3933   25.9182 C.ar      1 UNK         0.0000 
      7 C7         15.1682   18.0462   24.6451 C.ar      1 UNK         0.0000 
      8 C8         16.5107   17.7192   24.4739 C.ar      1 UNK         0.0000 
      9 O9         16.9146   17.4800   23.1769 O.3       1 UNK         0.0000 
     10 C10        18.2984   17.3585   22.8953 C.3       1 UNK         0.0000 
     11 C11        17.3468   17.7182   25.6049 C.ar      1 UNK         0.0000 
     12 C12        16.7995   18.0434   26.8464 C.ar      1 UNK         0.0000 
     13 N13        15.4955   18.3761   27.0122 N.ar      1 UNK         0.0000 
     14 C14        11.8309   16.9239   25.2719 C.3       1 UNK         0.0000 
     15 C15        10.5227   16.6234   24.5279 C.3       1 UNK         0.0000 
     16 C16        10.5658   17.1822   23.1201 C.ar      1 UNK         0.0000 
     17 C17        11.2470   18.3891   22.9119 C.ar      1 UNK         0.0000 
     18 C18        11.1956   19.0088   21.6538 C.ar      1 UNK         0.0000 
     19 C19        10.5922   18.3746   20.5696 C.ar      1 UNK         0.0000 
     20 C20        10.6350   19.0107   19.1896 C.3       1 UNK         0.0000 
     21 N21        11.7889   18.5889   18.4126 N.pl3     1 UNK         0.0000 
     22 C22        12.8729   19.3439   18.0353 C.ar      1 UNK         0.0000 
     23 N23        13.7689   18.6689   17.3549 N.2       1 UNK         0.0000 
     24 C24        13.2787   17.4425   17.2810 C.ar      1 UNK         0.0000 
     25 C25        12.0521   17.3390   17.9168 C.ar      1 UNK         0.0000 
     26 C26         9.9953   17.1300   20.7535 C.ar      1 UNK         0.0000 
     27 C27         9.9678   16.5428   22.0205 C.ar      1 UNK         0.0000 
     28 C28         9.2392   15.2631   22.1865 C.ar      1 UNK         0.0000 
     29 C29         9.7544   13.9765   22.2311 C.ar      1 UNK         0.0000 
     30 N30         8.6848   13.1585   22.4683 N.pl3     1 UNK         0.0000 
     31 C31         8.6751   11.7092   22.6485 C.3       1 UNK         0.0000 
     32 C32         8.0723   11.3161   24.0134 C.3       1 UNK         0.0000 
     33 N33         7.5374   13.8448   22.5500 N.2       1 UNK         0.0000 
     34 C34         7.8574   15.1126   22.3846 C.ar      1 UNK         0.0000 
     35 C35         6.7822   16.1853   22.4481 C.3       1 UNK         0.0000 
     36 F36         7.1693   17.3177   21.8658 F         1 UNK         0.0000 
     37 F37         5.6726   15.7981   21.8274 F         1 UNK         0.0000 
     38 F38         6.4720   16.4739   23.7126 F         1 UNK         0.0000 
     39 H39        12.9677   18.1651   27.0668 H         1 UNK         0.0000 
     40 H40        13.5408   20.3513   27.6789 H         1 UNK         0.0000 
     41 H41        13.5056   20.9472   26.0352 H         1 UNK         0.0000 
     42 H42        12.0075   20.4838   26.8373 H         1 UNK         0.0000 
     43 H43        14.5334   18.0534   23.7746 H         1 UNK         0.0000 
     44 H44        18.4297   17.1779   21.8276 H         1 UNK         0.0000 
     45 H45        18.8501   18.2641   23.1562 H         1 UNK         0.0000 
     46 H46        18.7279   16.5152   23.4252 H         1 UNK         0.0000 
     47 H47        18.4079   17.5228   25.5473 H         1 UNK         0.0000 
     48 H48        17.4165   18.0667   27.7340 H         1 UNK         0.0000 
     49 H49        12.5827   16.3243   24.7542 H         1 UNK         0.0000 
     50 H50        11.8582   16.5521   26.2967 H         1 UNK         0.0000 
     51 H51        10.3631   15.5451   24.5263 H         1 UNK         0.0000 
     52 H52         9.6795   17.0442   25.0766 H         1 UNK         0.0000 
     53 H53        11.6725   19.9651   21.4894 H         1 UNK         0.0000 
     54 H54         9.7324   18.7735   18.6247 H         1 UNK         0.0000 
     55 H55        10.6535   20.0967   19.2747 H         1 UNK         0.0000 
     56 H56        12.9250   20.3895   18.3003 H         1 UNK         0.0000 
     57 H57        13.8030   16.6452   16.7740 H         1 UNK         0.0000 
     58 H58        11.3663   16.5184   18.0631 H         1 UNK         0.0000 
     59 H59         9.5401   16.6263   19.9130 H         1 UNK         0.0000 
     60 H60        10.7570   13.5811   22.1459 H         1 UNK         0.0000 
     61 H61         8.1062   11.2730   21.8264 H         1 UNK         0.0000 
     62 H62         9.6996   11.3331   22.5666 H         1 UNK         0.0000 
     63 H63         8.0730   10.2358   24.1525 H         1 UNK         0.0000 
     64 H64         8.6569   11.7421   24.8301 H         1 UNK         0.0000 
     65 H65         7.0437   11.6574   24.1205 H         1 UNK         0.0000 
@<TRIPOS>BOND
     1    1    2 2    
     2    2   17 1    
     3    2    3 am   BACKBONE|DICT|INTERRES
     4    3    4 1    
     5    3   14 1    
     6    4   39 1    
     7    4    5 1    
     8    4    6 1    
     9    5   40 1    
    10    5   41 1    
    11    5   42 1    
    12    6   13 ar   
    13    6    7 ar   
    14    7    8 ar   
    15    7   43 1    
    16    8    9 1    
    17    8   11 ar   
    18    9   10 1    
    19   10   44 1    
    20   10   45 1    
    21   10   46 1    
    22   11   12 ar   
    23   11   47 1    
    24   12   13 ar   
    25   12   48 1    
    26   14   15 1    
    27   14   49 1    
    28   14   50 1    
    29   15   16 1    
    30   15   51 1    
    31   15   52 1    
    32   16   27 ar   
    33   16   17 ar   
    34   17   18 ar   
    35   18   19 ar   
    36   18   53 1    
    37   19   20 1    
    38   19   26 ar   
    39   20   21 1    
    40   20   54 1    
    41   20   55 1    
    42   21   25 ar   
    43   21   22 ar   
    44   22   23 ar   
    45   22   56 1    
    46   23   24 ar   
    47   24   25 ar   
    48   24   57 1    
    49   25   58 1    
    50   26   27 ar   
    51   26   59 1    
    52   27   28 1    
    53   28   34 ar   
    54   28   29 ar   
    55   29   30 ar   
    56   29   60 1    
    57   30   31 1    
    58   30   33 ar   
    59   31   32 1    
    60   31   61 1    
    61   31   62 1    
    62   32   63 1    
    63   32   64 1    
    64   32   65 1    
    65   33   34 ar   
    66   34   35 1    
    67   35   36 1    
    68   35   37 1    
    69   35   38 1    
@<TRIPOS>SUBSTRUCTURE
     1 UNK         1 GROUP             0       ****    0 ROOT    
