@<TRIPOS>MOLECULE
/home/yujie/leadopt/data/result/selection/WDR5/lig_35.sdf:1
69   73    1
SMALL
USER_CHARGES


@<TRIPOS>ATOM
      1 O1         12.8740   20.1182   23.7768 O.2       1 UNK         0.0000 
      2 C2         12.1805   19.1409   24.0608 C.2       1 UNK         0.0000 
      3 N3         12.1732   18.6257   25.3305 N.am      1 UNK         0.0000 
      4 C4         13.0292   19.1839   26.4135 C.3       1 UNK         0.0000 
      5 C5         12.8442   20.6959   26.6864 C.3       1 UNK         0.0000 
      6 C6         14.5098   18.7564   26.3998 C.ar      1 UNK         0.0000 
      7 C7         15.1601   18.2077   25.2809 C.ar      1 UNK         0.0000 
      8 C8         16.5121   17.8336   25.3831 C.ar      1 UNK         0.0000 
      9 O9         17.2706   17.3227   24.3458 O.3       1 UNK         0.0000 
     10 C10        16.6978   17.2124   23.0480 C.3       1 UNK         0.0000 
     11 C11        17.1565   18.0014   26.6085 C.ar      1 UNK         0.0000 
     12 C12        16.4487   18.5412   27.6811 C.ar      1 UNK         0.0000 
     13 N13        15.1481   18.9123   27.5908 N.ar      1 UNK         0.0000 
     14 C14        11.3064   17.4979   25.7431 C.3       1 UNK         0.0000 
     15 C15        10.9176   16.5197   24.6230 C.3       1 UNK         0.0000 
     16 C16        10.7437   17.1722   23.2645 C.ar      1 UNK         0.0000 
     17 C17        11.3376   18.4207   23.0240 C.ar      1 UNK         0.0000 
     18 C18        11.2709   18.9851   21.7404 C.ar      1 UNK         0.0000 
     19 C19        10.6381   18.3154   20.6914 C.ar      1 UNK         0.0000 
     20 C20        10.6723   18.8826   19.2765 C.3       1 UNK         0.0000 
     21 N21        11.8005   18.3849   18.4862 N.pl3     1 UNK         0.0000 
     22 C22        12.7602   19.1395   17.8236 C.ar      1 UNK         0.0000 
     23 C23        12.8207   20.6399   17.6707 C.3       1 UNK         0.0000 
     24 N24        13.6208   18.2610   17.1985 N.pl3     1 UNK         0.0000 
     25 C25        13.2046   16.9645   17.4265 C.ar      1 UNK         0.0000 
     26 C26        12.0733   17.0443   18.2250 C.ar      1 UNK         0.0000 
     27 C27        10.0115   17.0963   20.9451 C.ar      1 UNK         0.0000 
     28 C28        10.0541   16.5319   22.2187 C.ar      1 UNK         0.0000 
     29 C29         9.3414   15.2490   22.4370 C.ar      1 UNK         0.0000 
     30 C30         9.8373   13.9555   22.3730 C.ar      1 UNK         0.0000 
     31 N31         8.7921   13.1383   22.7156 N.pl3     1 UNK         0.0000 
     32 C32         8.7791   11.6783   22.8285 C.3       1 UNK         0.0000 
     33 C33         8.0730   11.2055   24.1218 C.3       1 UNK         0.0000 
     34 N34         7.6727   13.8348   22.9380 N.2       1 UNK         0.0000 
     35 C35         7.9960   15.1039   22.8248 C.ar      1 UNK         0.0000 
     36 C36         6.9618   16.1841   23.1114 C.3       1 UNK         0.0000 
     37 F37         7.5304   17.2908   23.5919 F         1 UNK         0.0000 
     38 F38         6.2964   16.5179   22.0059 F         1 UNK         0.0000 
     39 F39         6.0728   15.7833   24.0194 F         1 UNK         0.0000 
     40 H40        12.6532   18.7204   27.3280 H         1 UNK         0.0000 
     41 H41        13.2209   20.9652   27.6745 H         1 UNK         0.0000 
     42 H42        13.3795   21.3180   25.9676 H         1 UNK         0.0000 
     43 H43        11.7931   20.9838   26.6622 H         1 UNK         0.0000 
     44 H44        14.6331   18.0839   24.3502 H         1 UNK         0.0000 
     45 H45        17.4432   16.8281   22.3518 H         1 UNK         0.0000 
     46 H46        15.8564   16.5216   23.0421 H         1 UNK         0.0000 
     47 H47        16.3673   18.1812   22.6722 H         1 UNK         0.0000 
     48 H48        18.1972   17.7311   26.7164 H         1 UNK         0.0000 
     49 H49        16.9288   18.6945   28.6360 H         1 UNK         0.0000 
     50 H50        11.6151   17.0063   26.6683 H         1 UNK         0.0000 
     51 H51        10.3647   17.9714   26.0274 H         1 UNK         0.0000 
     52 H52        11.6982   15.7628   24.5434 H         1 UNK         0.0000 
     53 H53        10.0257   15.9723   24.9214 H         1 UNK         0.0000 
     54 H54        11.7306   19.9402   21.5312 H         1 UNK         0.0000 
     55 H55         9.7499   18.6342   18.7462 H         1 UNK         0.0000 
     56 H56        10.7092   19.9719   19.3133 H         1 UNK         0.0000 
     57 H57        13.6859   20.9681   17.0947 H         1 UNK         0.0000 
     58 H58        11.9395   21.0259   17.1579 H         1 UNK         0.0000 
     59 H59        12.8756   21.1404   18.6269 H         1 UNK         0.0000 
     60 H60        13.7364   16.1185   17.0108 H         1 UNK         0.0000 
     61 H61        11.4413   16.2689   18.6276 H         1 UNK         0.0000 
     62 H62         9.5052   16.5686   20.1485 H         1 UNK         0.0000 
     63 H63        10.8131   13.5503   22.1468 H         1 UNK         0.0000 
     64 H64         8.2868   11.2758   21.9432 H         1 UNK         0.0000 
     65 H65         9.8107   11.3180   22.8156 H         1 UNK         0.0000 
     66 H66         8.0735   10.1190   24.2197 H         1 UNK         0.0000 
     67 H67         8.5741   11.6011   25.0060 H         1 UNK         0.0000 
     68 H68         7.0315   11.5223   24.1606 H         1 UNK         0.0000 
     69 H69        14.4189   18.5287   16.6395 H         1 UNK         0.0000 
@<TRIPOS>BOND
     1    1    2 2    
     2    2   17 1    
     3    2    3 am   BACKBONE|DICT|INTERRES
     4    3    4 1    
     5    3   14 1    
     6    4   40 1    
     7    4    5 1    
     8    4    6 1    
     9    5   41 1    
    10    5   42 1    
    11    5   43 1    
    12    6   13 ar   
    13    6    7 ar   
    14    7    8 ar   
    15    7   44 1    
    16    8    9 1    
    17    8   11 ar   
    18    9   10 1    
    19   10   45 1    
    20   10   46 1    
    21   10   47 1    
    22   11   12 ar   
    23   11   48 1    
    24   12   13 ar   
    25   12   49 1    
    26   14   15 1    
    27   14   50 1    
    28   14   51 1    
    29   15   16 1    
    30   15   52 1    
    31   15   53 1    
    32   16   28 ar   
    33   16   17 ar   
    34   17   18 ar   
    35   18   19 ar   
    36   18   54 1    
    37   19   20 1    
    38   19   27 ar   
    39   20   21 1    
    40   20   55 1    
    41   20   56 1    
    42   21   26 ar   
    43   21   22 ar   
    44   22   23 1    
    45   22   24 ar   
    46   23   57 1    
    47   23   58 1    
    48   23   59 1    
    49   24   25 ar   
    50   24   69 1    
    51   25   26 ar   
    52   25   60 1    
    53   26   61 1    
    54   27   28 ar   
    55   27   62 1    
    56   28   29 1    
    57   29   35 ar   
    58   29   30 ar   
    59   30   31 ar   
    60   30   63 1    
    61   31   32 1    
    62   31   34 ar   
    63   32   33 1    
    64   32   64 1    
    65   32   65 1    
    66   33   66 1    
    67   33   67 1    
    68   33   68 1    
    69   34   35 ar   
    70   35   36 1    
    71   36   37 1    
    72   36   38 1    
    73   36   39 1    
@<TRIPOS>SUBSTRUCTURE
     1 UNK         1 GROUP             0       ****    0 ROOT    
