@<TRIPOS>MOLECULE
/home/yujie/leadopt/data/result/selection/WDR5/lig_25.sdf:1
58   62    1
SMALL
USER_CHARGES


@<TRIPOS>ATOM
      1 O1         12.4729   20.4282   23.8266 O.2       1 UNK         0.0000 
      2 C2         12.0726   19.2723   23.9895 C.2       1 UNK         0.0000 
      3 N3         12.2800   18.6084   25.1693 N.am      1 UNK         0.0000 
      4 C4         13.2174   19.1675   26.1614 C.3       1 UNK         0.0000 
      5 C5         14.6642   18.6760   26.0756 C.ar      1 UNK         0.0000 
      6 C6         15.4714   18.7028   27.2178 C.ar      1 UNK         0.0000 
      7 C7         16.7772   18.2175   27.1296 C.ar      1 UNK         0.0000 
      8 C8         17.2423   17.7184   25.9128 C.ar      1 UNK         0.0000 
      9 C9         16.3796   17.7184   24.8154 C.ar      1 UNK         0.0000 
     10 N10        15.1054   18.1798   24.8847 N.ar      1 UNK         0.0000 
     11 C11        11.8860   17.1992   25.3864 C.3       1 UNK         0.0000 
     12 C12        10.5873   16.8240   24.6561 C.3       1 UNK         0.0000 
     13 C13        10.6016   17.3187   23.2196 C.ar      1 UNK         0.0000 
     14 C14        11.2770   18.5183   22.9381 C.ar      1 UNK         0.0000 
     15 C15        11.2299   19.0594   21.6449 C.ar      1 UNK         0.0000 
     16 C16        10.6360   18.3540   20.5986 C.ar      1 UNK         0.0000 
     17 C17        10.7099   18.8839   19.1694 C.3       1 UNK         0.0000 
     18 N18        11.8382   18.3466   18.4089 N.pl3     1 UNK         0.0000 
     19 C19        12.8388   19.0253   17.7391 C.ar      1 UNK         0.0000 
     20 C20        12.9256   20.5326   17.6446 C.3       1 UNK         0.0000 
     21 N21        13.6869   18.2201   17.1381 N.2       1 UNK         0.0000 
     22 C22        13.2527   17.0020   17.3970 C.ar      1 UNK         0.0000 
     23 C23        12.1115   17.0226   18.1767 C.ar      1 UNK         0.0000 
     24 C24        10.0262   17.1284   20.8640 C.ar      1 UNK         0.0000 
     25 C25         9.9952   16.6163   22.1626 C.ar      1 UNK         0.0000 
     26 C26         9.3424   15.2977   22.3787 C.ar      1 UNK         0.0000 
     27 C27         9.9333   14.0558   22.2260 C.ar      1 UNK         0.0000 
     28 N28         8.9678   13.1395   22.5315 N.pl3     1 UNK         0.0000 
     29 C29         9.0699   11.6915   22.5254 C.3       1 UNK         0.0000 
     30 N30         7.8156   13.7175   22.8829 N.2       1 UNK         0.0000 
     31 C31         8.0320   15.0193   22.8236 C.ar      1 UNK         0.0000 
     32 C32         6.9222   15.9907   23.1992 C.3       1 UNK         0.0000 
     33 F33         6.0726   15.4573   24.0777 F         1 UNK         0.0000 
     34 F34         7.4096   17.0990   23.7554 F         1 UNK         0.0000 
     35 F35         6.2200   16.3523   22.1266 F         1 UNK         0.0000 
     36 H36        13.2207   20.2592   26.1435 H         1 UNK         0.0000 
     37 H37        12.8399   18.9005   27.1489 H         1 UNK         0.0000 
     38 H38        15.0998   19.0936   28.1533 H         1 UNK         0.0000 
     39 H39        17.4243   18.2314   27.9943 H         1 UNK         0.0000 
     40 H40        18.2478   17.3398   25.8270 H         1 UNK         0.0000 
     41 H41        16.7011   17.3375   23.8568 H         1 UNK         0.0000 
     42 H42        12.6503   16.5788   24.9140 H         1 UNK         0.0000 
     43 H43        11.9257   16.9067   26.4363 H         1 UNK         0.0000 
     44 H44         9.7349   17.2469   25.1884 H         1 UNK         0.0000 
     45 H45        10.4599   15.7425   24.7030 H         1 UNK         0.0000 
     46 H46        11.6912   20.0115   21.4263 H         1 UNK         0.0000 
     47 H47        10.7664   19.9732   19.1780 H         1 UNK         0.0000 
     48 H48         9.7955   18.6426   18.6273 H         1 UNK         0.0000 
     49 H49        13.8520   20.8661   17.1762 H         1 UNK         0.0000 
     50 H50        12.8853   20.9931   18.6270 H         1 UNK         0.0000 
     51 H51        12.1058   20.9454   17.0554 H         1 UNK         0.0000 
     52 H52        13.7553   16.1198   17.0265 H         1 UNK         0.0000 
     53 H53        11.4918   16.2357   18.5794 H         1 UNK         0.0000 
     54 H54         9.5878   16.5651   20.0535 H         1 UNK         0.0000 
     55 H55        10.9238   13.7457   21.9237 H         1 UNK         0.0000 
     56 H56        10.0727   11.3844   22.2246 H         1 UNK         0.0000 
     57 H57         8.8751   11.3074   23.5277 H         1 UNK         0.0000 
     58 H58         8.3432   11.2784   21.8264 H         1 UNK         0.0000 
@<TRIPOS>BOND
     1    1    2 2    
     2    2   14 1    
     3    2    3 am   BACKBONE|DICT|INTERRES
     4    3    4 1    
     5    3   11 1    
     6    4    5 1    
     7    4   36 1    
     8    4   37 1    
     9    5   10 ar   
    10    5    6 ar   
    11    6    7 ar   
    12    6   38 1    
    13    7    8 ar   
    14    7   39 1    
    15    8    9 ar   
    16    8   40 1    
    17    9   10 ar   
    18    9   41 1    
    19   11   12 1    
    20   11   42 1    
    21   11   43 1    
    22   12   13 1    
    23   12   44 1    
    24   12   45 1    
    25   13   25 ar   
    26   13   14 ar   
    27   14   15 ar   
    28   15   16 ar   
    29   15   46 1    
    30   16   17 1    
    31   16   24 ar   
    32   17   18 1    
    33   17   47 1    
    34   17   48 1    
    35   18   23 ar   
    36   18   19 ar   
    37   19   20 1    
    38   19   21 ar   
    39   20   49 1    
    40   20   50 1    
    41   20   51 1    
    42   21   22 ar   
    43   22   23 ar   
    44   22   52 1    
    45   23   53 1    
    46   24   25 ar   
    47   24   54 1    
    48   25   26 1    
    49   26   31 ar   
    50   26   27 ar   
    51   27   28 ar   
    52   27   55 1    
    53   28   29 1    
    54   28   30 ar   
    55   29   56 1    
    56   29   57 1    
    57   29   58 1    
    58   30   31 ar   
    59   31   32 1    
    60   32   33 1    
    61   32   34 1    
    62   32   35 1    
@<TRIPOS>SUBSTRUCTURE
     1 UNK         1 GROUP             0       ****    0 ROOT    
