/home/yujie/leadopt/data/result/selection/WDR5/lig_8.sdf:1
                    3D
 Schrodinger Suite 2020-3.
 69 73  0  0  1  0            999 V2000
   12.8162   20.3318   23.8264 O   0  0  0  0  0  0
   12.1717   19.3114   24.0779 C   0  0  0  0  0  0
   12.1815   18.7752   25.3362 N   0  0  0  0  0  0
   12.9892   19.4101   26.3974 C   0  0  0  0  0  0
   14.4333   18.9185   26.5360 C   0  0  0  0  0  0
   15.0746   19.0646   27.7694 C   0  0  0  0  0  0
   16.4024   18.6764   27.9466 C   0  0  0  0  0  0
   16.9478   18.8839   29.1982 O   0  0  0  0  0  0
   18.3210   18.5715   29.4124 C   0  0  0  0  0  0
   17.0928   18.1136   26.8624 C   0  0  0  0  0  0
   16.4774   17.9456   25.6235 C   0  0  0  0  0  0
   17.2509   17.3910   24.6228 O   0  0  0  0  0  0
   16.6753   17.1747   23.3406 C   0  0  0  0  0  0
   15.1425   18.3498   25.4685 C   0  0  0  0  0  0
   11.3373   17.6374   25.7520 C   0  0  0  0  0  0
   10.9949   16.6495   24.6228 C   0  0  0  0  0  0
   10.7840   17.3089   23.2712 C   0  0  0  0  0  0
   11.3551   18.5707   23.0334 C   0  0  0  0  0  0
   11.2576   19.1489   21.7563 C   0  0  0  0  0  0
   10.6047   18.4865   20.7164 C   0  0  0  0  0  0
   10.5880   19.0544   19.3006 C   0  0  0  0  0  0
   11.7319   18.6278   18.4934 N   0  3  0  0  0  0
   12.6569   19.4380   17.8508 C   0  0  0  0  0  0
   13.5802   18.6269   17.2087 N   0  0  0  0  0  0
   14.7344   19.0718   16.4447 C   0  0  0  0  0  0
   13.2117   17.3074   17.4265 C   0  0  0  0  0  0
   12.0681   17.3110   18.2076 C   0  0  0  0  0  0
   12.6498   20.7925   17.8265 N   0  0  0  0  0  0
    9.9971   17.2633   20.9726 C   0  0  0  0  0  0
   10.0749   16.6692   22.2332 C   0  0  0  0  0  0
    9.4514   15.3313   22.4077 C   0  0  0  0  0  0
    8.0559   15.1689   22.4249 C   0  0  0  0  0  0
    7.0997   16.3519   22.3441 C   0  0  0  0  0  0
    7.5418   13.8741   22.5228 C   0  0  0  0  0  0
    8.3139   12.7636   22.6224 N   0  0  0  0  0  0
    9.6585   12.9352   22.6315 C   0  0  0  0  0  0
   10.2597   14.1906   22.5198 C   0  0  0  0  0  0
   13.0154   20.4938   26.2621 H   0  0  0  0  0  0
   12.4851   19.2629   27.3539 H   0  0  0  0  0  0
   14.5477   19.5058   28.6029 H   0  0  0  0  0  0
   18.5922   18.8221   30.4388 H   0  0  0  0  0  0
   18.5167   17.5078   29.2705 H   0  0  0  0  0  0
   18.9718   19.1477   28.7508 H   0  0  0  0  0  0
   18.1205   17.8046   26.9586 H   0  0  0  0  0  0
   17.4055   16.6948   22.6884 H   0  0  0  0  0  0
   15.8072   16.5184   23.4101 H   0  0  0  0  0  0
   16.3796   18.1141   22.8707 H   0  0  0  0  0  0
   14.6600   18.2429   24.5095 H   0  0  0  0  0  0
   11.6545   17.1698   26.6863 H   0  0  0  0  0  0
   10.3775   18.0833   26.0191 H   0  0  0  0  0  0
   10.1273   16.0569   24.9152 H   0  0  0  0  0  0
   11.8104   15.9301   24.5415 H   0  0  0  0  0  0
   11.6847   20.1183   21.5499 H   0  0  0  0  0  0
    9.6748   18.7608   18.7807 H   0  0  0  0  0  0
   10.5590   20.1419   19.3404 H   0  0  0  0  0  0
   15.2720   19.8338   17.0127 H   0  0  0  0  0  0
   15.4033   18.2330   16.2523 H   0  0  0  0  0  0
   14.3993   19.4821   15.4926 H   0  0  0  0  0  0
   13.7872   16.4874   17.0139 H   0  0  0  0  0  0
   11.4695   16.4953   18.5896 H   0  0  0  0  0  0
   12.8751   21.2878   16.9767 H   0  0  0  0  0  0
    9.4850   16.7478   20.1712 H   0  0  0  0  0  0
    7.2590   16.9153   21.4268 H   0  0  0  0  0  0
    6.0517   16.0479   22.3776 H   0  0  0  0  0  0
    7.2838   17.0355   23.1732 H   0  0  0  0  0  0
    6.4744   13.7187   22.4953 H   0  0  0  0  0  0
   10.2632   12.0400   22.7107 H   0  0  0  0  0  0
   11.3380   14.2679   22.4950 H   0  0  0  0  0  0
   12.3484   21.3183   18.6383 H   0  0  0  0  0  0
  1  2  2  0  0  0
  2 18  1  0  0  0
  2  3  1  0  0  0
  3  4  1  0  0  0
  3 15  1  0  0  0
  4  5  1  0  0  0
  4 38  1  0  0  0
  4 39  1  0  0  0
  5 14  1  0  0  0
  5  6  2  0  0  0
  6  7  1  0  0  0
  6 40  1  0  0  0
  7  8  1  0  0  0
  7 10  2  0  0  0
  8  9  1  0  0  0
  9 41  1  0  0  0
  9 42  1  0  0  0
  9 43  1  0  0  0
 10 11  1  0  0  0
 10 44  1  0  0  0
 11 12  1  0  0  0
 11 14  2  0  0  0
 12 13  1  0  0  0
 13 45  1  0  0  0
 13 46  1  0  0  0
 13 47  1  0  0  0
 14 48  1  0  0  0
 15 16  1  0  0  0
 15 49  1  0  0  0
 15 50  1  0  0  0
 16 17  1  0  0  0
 16 51  1  0  0  0
 16 52  1  0  0  0
 17 30  1  0  0  0
 17 18  2  0  0  0
 18 19  1  0  0  0
 19 20  2  0  0  0
 19 53  1  0  0  0
 20 21  1  0  0  0
 20 29  1  0  0  0
 21 22  1  0  0  0
 21 54  1  0  0  0
 21 55  1  0  0  0
 22 27  1  0  0  0
 22 23  2  0  0  0
 23 24  1  0  0  0
 23 28  1  0  0  0
 24 25  1  0  0  0
 24 26  1  0  0  0
 25 56  1  0  0  0
 25 57  1  0  0  0
 25 58  1  0  0  0
 26 27  2  0  0  0
 26 59  1  0  0  0
 27 60  1  0  0  0
 28 61  1  0  0  0
 28 69  1  0  0  0
 29 30  2  0  0  0
 29 62  1  0  0  0
 30 31  1  0  0  0
 31 37  1  0  0  0
 31 32  2  0  0  0
 32 33  1  0  0  0
 32 34  1  0  0  0
 33 63  1  0  0  0
 33 64  1  0  0  0
 33 65  1  0  0  0
 34 35  2  0  0  0
 34 66  1  0  0  0
 35 36  1  0  0  0
 36 37  2  0  0  0
 36 67  1  0  0  0
 37 68  1  0  0  0
M  CHG  1  22   1
M  END
> <s_m_source_file>
/home/yujie/leadopt/data/result/selection/WDR5/lig_8.sdf

> <i_m_source_file_index>
1

> <i_lp_mmshare_version>
51139

> <i_f3d_flags>
0

> <s_epik_input>
W0NIM11PYyhbY0hdMSlbY0hdYyhPW0NIM10pW2NIXWMxW0NIMl1OKFtDSDJdW0NIMl0yKUMoPU8pYyhjMjMpW2NIXWMoW0NIMl1uNC9jKD1OL1tIXSluKFtDSDNdKVtjSF1bY0hdNClbY0hdYzMtYzVjKFtDSDNdKVtjSF1uW2NIXVtjSF01

> <s_epik_cmdline>
J2VwaWtfcHl0aG9uJywgJy1waHQnLCAnMi4wJywgJy1waCcsICc3LjAnLCAnLXRuJywgJzgnLCAnLW1hJywgJzIwMCcsICctaW1hZScsICc8aW5maWxlLm1hZT4nLCAnLW9tYWUnLCAnPG91dGZpbGUubWFlPic=

> <r_lp_tautomer_probability>
1

> <r_epik_Ionization_Penalty>
  0.0192

> <r_epik_Ionization_Penalty_Charging>
  0.0000

> <r_epik_Ionization_Penalty_Neutral>
  0.0192

> <r_epik_State_Penalty>
  0.0152

> <r_epik_Charging_Adjusted_Penalty>
0.0152437

> <i_epik_Tot_Q>
1

> <i_epik_Tot_abs_Q>
1

> <s_lp_Force_Field>
OPLS3e

> <r_lp_Energy>
59.7927

> <b_lp_Chiralities_Consistent>
1

> <s_lp_Variant>
/home/yujie/leadopt/data/result/selection/WDR5/lig_8.sdf:1-1

> <s_i_glide_gridfile>
glide-grid_WDR5

> <i_i_glide_lignum>
1

> <i_i_glide_rotatable_bonds>
7

> <r_i_docking_score>
-10.8772313609698

> <r_i_glide_ligand_efficiency>
-0.293979225972157

> <r_i_glide_ligand_efficiency_sa>
-0.979603999535294

> <r_i_glide_ligand_efficiency_ln>
-2.35901648371181

> <r_i_glide_gscore>
-10.8924750609698

> <r_i_glide_lipo>
-3.96163892152225

> <r_i_glide_hbond>
-0.584013716144531

> <r_i_glide_metal>
-0

> <r_i_glide_rewards>
-2.48099589458236

> <r_i_glide_evdw>
-57.7796058654785

> <r_i_glide_ecoul>
-9.24859809875488

> <r_i_glide_erotb>
0.41044347936651

> <r_i_glide_esite>
0

> <r_i_glide_emodel>
-112.776272711076

> <r_i_glide_energy>
-67.0282039642334

> <r_i_glide_einternal>
3.34256887435913

> <i_i_glide_confnum>
14

> <i_i_glide_posenum>
279

> <r_i_glide_eff_state_penalty>
0.0152437

$$$$
