@<TRIPOS>MOLECULE
/home/yujie/leadopt/data/result/selection/WDR5/lig_29.sdf:1
62   66    1
SMALL
USER_CHARGES


@<TRIPOS>ATOM
      1 O1         12.4730   20.3178   23.8265 O.2       1 UNK         0.0000 
      2 C2         12.0731   19.1597   23.9781 C.2       1 UNK         0.0000 
      3 N3         12.3257   18.4693   25.1344 N.am      1 UNK         0.0000 
      4 C4         13.2947   19.0097   26.1053 C.3       1 UNK         0.0000 
      5 C5         14.7463   18.5494   25.9411 C.ar      1 UNK         0.0000 
      6 C6         15.2745   18.1226   24.7108 C.ar      1 UNK         0.0000 
      7 C7         16.6109   17.7171   24.6567 C.ar      1 UNK         0.0000 
      8 C8         17.2435   17.2323   23.3659 C.3       1 UNK         0.0000 
      9 N9         17.4248   17.7135   25.7441 N.ar      1 UNK         0.0000 
     10 C10        16.9026   18.1191   26.9275 C.ar      1 UNK         0.0000 
     11 C11        15.5775   18.5331   27.0678 C.ar      1 UNK         0.0000 
     12 C12        11.9143   17.0628   25.3462 C.3       1 UNK         0.0000 
     13 C13        10.5837   16.7238   24.6536 C.3       1 UNK         0.0000 
     14 C14        10.5620   17.2355   23.2234 C.ar      1 UNK         0.0000 
     15 C15        11.2523   18.4253   22.9349 C.ar      1 UNK         0.0000 
     16 C16        11.1918   18.9729   21.6452 C.ar      1 UNK         0.0000 
     17 C17        10.5617   18.2825   20.6072 C.ar      1 UNK         0.0000 
     18 C18        10.6169   18.8067   19.1771 C.3       1 UNK         0.0000 
     19 N19        11.7776   18.3220   18.4251 N.pl3     1 UNK         0.0000 
     20 C20        12.7786   19.0943   17.8535 C.ar      1 UNK         0.0000 
     21 C21        12.8952   20.5934   17.8912 C.3       1 UNK         0.0000 
     22 N22        13.6725   18.2399   17.2482 N.pl3     1 UNK         0.0000 
     23 C23        13.2459   16.9372   17.4142 C.ar      1 UNK         0.0000 
     24 C24        12.0706   16.9899   18.1522 C.ar      1 UNK         0.0000 
     25 C25         9.9244   17.0746   20.8832 C.ar      1 UNK         0.0000 
     26 C26         9.9148   16.5567   22.1774 C.ar      1 UNK         0.0000 
     27 C27         9.2467   15.2486   22.3857 C.ar      1 UNK         0.0000 
     28 C28         9.8227   14.0075   22.1947 C.ar      1 UNK         0.0000 
     29 N29         8.8443   13.0948   22.4733 N.pl3     1 UNK         0.0000 
     30 C30         8.9315   11.6477   22.4258 C.3       1 UNK         0.0000 
     31 N31         7.7042   13.6769   22.8637 N.2       1 UNK         0.0000 
     32 C32         7.9390   14.9764   22.8403 C.ar      1 UNK         0.0000 
     33 C33         6.8502   15.9499   23.2619 C.3       1 UNK         0.0000 
     34 F34         7.3616   17.0802   23.7496 F         1 UNK         0.0000 
     35 F35         6.0740   16.2708   22.2266 F         1 UNK         0.0000 
     36 F36         6.0718   15.4339   24.2145 F         1 UNK         0.0000 
     37 H37        13.2842   20.1009   26.1129 H         1 UNK         0.0000 
     38 H38        12.9601   18.7141   27.1011 H         1 UNK         0.0000 
     39 H39        14.6727   18.1079   23.8159 H         1 UNK         0.0000 
     40 H40        16.5126   17.1784   22.5594 H         1 UNK         0.0000 
     41 H41        18.0398   17.9092   23.0558 H         1 UNK         0.0000 
     42 H42        17.6717   16.2384   23.4937 H         1 UNK         0.0000 
     43 H43        17.5735   18.1093   27.7750 H         1 UNK         0.0000 
     44 H44        15.2133   18.8496   28.0331 H         1 UNK         0.0000 
     45 H45        12.6521   16.4350   24.8435 H         1 UNK         0.0000 
     46 H46        11.9773   16.7557   26.3913 H         1 UNK         0.0000 
     47 H47         9.7560   17.1553   25.2169 H         1 UNK         0.0000 
     48 H48        10.4355   15.6433   24.6896 H         1 UNK         0.0000 
     49 H49        11.6748   19.9150   21.4229 H         1 UNK         0.0000 
     50 H50         9.7154   18.5192   18.6337 H         1 UNK         0.0000 
     51 H51        10.6109   19.8982   19.1814 H         1 UNK         0.0000 
     52 H52        13.8233   20.9642   17.4541 H         1 UNK         0.0000 
     53 H53        12.0698   21.0842   17.3751 H         1 UNK         0.0000 
     54 H54        12.8718   20.9184   18.9288 H         1 UNK         0.0000 
     55 H55        13.8183   16.1148   17.0149 H         1 UNK         0.0000 
     56 H56        11.4264   16.2007   18.5154 H         1 UNK         0.0000 
     57 H57         9.4484   16.5288   20.0808 H         1 UNK         0.0000 
     58 H58        10.8112   13.7062   21.8797 H         1 UNK         0.0000 
     59 H59         9.8789   11.3383   21.9819 H         1 UNK         0.0000 
     60 H60         8.1103   11.2533   21.8263 H         1 UNK         0.0000 
     61 H61         8.8704   11.2456   23.4398 H         1 UNK         0.0000 
     62 H62        14.5204   18.5260   16.7757 H         1 UNK         0.0000 
@<TRIPOS>BOND
     1    1    2 2    
     2    2   15 1    
     3    2    3 am   BACKBONE|DICT|INTERRES
     4    3    4 1    
     5    3   12 1    
     6    4    5 1    
     7    4   37 1    
     8    4   38 1    
     9    5   11 ar   
    10    5    6 ar   
    11    6    7 ar   
    12    6   39 1    
    13    7    8 1    
    14    7    9 ar   
    15    8   40 1    
    16    8   41 1    
    17    8   42 1    
    18    9   10 ar   
    19   10   11 ar   
    20   10   43 1    
    21   11   44 1    
    22   12   13 1    
    23   12   45 1    
    24   12   46 1    
    25   13   14 1    
    26   13   47 1    
    27   13   48 1    
    28   14   26 ar   
    29   14   15 ar   
    30   15   16 ar   
    31   16   17 ar   
    32   16   49 1    
    33   17   18 1    
    34   17   25 ar   
    35   18   19 1    
    36   18   50 1    
    37   18   51 1    
    38   19   24 ar   
    39   19   20 ar   
    40   20   21 1    
    41   20   22 ar   
    42   21   52 1    
    43   21   53 1    
    44   21   54 1    
    45   22   23 ar   
    46   22   62 1    
    47   23   24 ar   
    48   23   55 1    
    49   24   56 1    
    50   25   26 ar   
    51   25   57 1    
    52   26   27 1    
    53   27   32 ar   
    54   27   28 ar   
    55   28   29 ar   
    56   28   58 1    
    57   29   30 1    
    58   29   31 ar   
    59   30   59 1    
    60   30   60 1    
    61   30   61 1    
    62   31   32 ar   
    63   32   33 1    
    64   33   34 1    
    65   33   35 1    
    66   33   36 1    
@<TRIPOS>SUBSTRUCTURE
     1 UNK         1 GROUP             0       ****    0 ROOT    
