@<TRIPOS>MOLECULE
/home/yujie/leadopt/data/result/selection/WDR5/lig_6.sdf:1
72   76    1
SMALL
USER_CHARGES


@<TRIPOS>ATOM
      1 O1         12.4730   20.4479   23.8263 O.2       1 UNK         0.0000 
      2 C2         12.1018   19.2784   23.9438 C.2       1 UNK         0.0000 
      3 N3         12.3730   18.5519   25.0724 N.am      1 UNK         0.0000 
      4 C4         13.2742   19.1043   26.0992 C.3       1 UNK         0.0000 
      5 C5         14.7131   18.5787   26.1253 C.ar      1 UNK         0.0000 
      6 C6         15.3809   18.5613   27.3512 C.ar      1 UNK         0.0000 
      7 C7         16.7055   18.1402   27.4509 C.ar      1 UNK         0.0000 
      8 O8         17.2752   18.1811   28.7074 O.3       1 UNK         0.0000 
      9 C9         18.6384   17.8034   28.8606 C.3       1 UNK         0.0000 
     10 C10        17.3647   17.7184   26.2910 C.ar      1 UNK         0.0000 
     11 C11        16.7252   17.7185   25.0527 C.ar      1 UNK         0.0000 
     12 O12        17.4963   17.3164   23.9793 O.3       1 UNK         0.0000 
     13 C13        16.9298   17.3032   22.6783 C.3       1 UNK         0.0000 
     14 C14        15.3870   18.1450   24.9741 C.ar      1 UNK         0.0000 
     15 C15        11.9715   17.1389   25.2452 C.3       1 UNK         0.0000 
     16 C16        10.6451   16.7991   24.5373 C.3       1 UNK         0.0000 
     17 C17        10.5987   17.3703   23.1300 C.ar      1 UNK         0.0000 
     18 C18        11.2881   18.5684   22.8798 C.ar      1 UNK         0.0000 
     19 C19        11.2083   19.1685   21.6175 C.ar      1 UNK         0.0000 
     20 C20        10.5398   18.5355   20.5718 C.ar      1 UNK         0.0000 
     21 C21        10.5761   19.1077   19.1627 C.3       1 UNK         0.0000 
     22 N22        11.7325   18.6348   18.4069 N.pl3     1 UNK         0.0000 
     23 C23        12.7293   19.4034   17.8266 C.ar      1 UNK         0.0000 
     24 N24        13.6298   18.5508   17.2060 N.pl3     1 UNK         0.0000 
     25 C25        14.8214   18.9393   16.4689 C.3       1 UNK         0.0000 
     26 C26        13.2020   17.2489   17.4172 C.ar      1 UNK         0.0000 
     27 C27        12.0213   17.3045   18.1350 C.ar      1 UNK         0.0000 
     28 N28        12.7923   20.7565   17.8264 N.pl3     1 UNK         0.0000 
     29 C29         9.8787   17.3377   20.8111 C.ar      1 UNK         0.0000 
     30 C30         9.8930   16.7566   22.0774 C.ar      1 UNK         0.0000 
     31 C31         9.1317   15.5043   22.2712 C.ar      1 UNK         0.0000 
     32 C32         7.7421   15.5138   22.4768 C.ar      1 UNK         0.0000 
     33 C33         6.9375   16.8023   22.5438 C.3       1 UNK         0.0000 
     34 N34         7.0185   14.3775   22.6271 N.ar      1 UNK         0.0000 
     35 C35         7.6733   13.1918   22.5836 C.ar      1 UNK         0.0000 
     36 C36         9.0458   13.0839   22.4015 C.ar      1 UNK         0.0000 
     37 C37         9.6988   11.7190   22.4114 C.3       1 UNK         0.0000 
     38 C38         9.7838   14.2612   22.2403 C.ar      1 UNK         0.0000 
     39 H39        13.3165   20.1944   26.0572 H         1 UNK         0.0000 
     40 H40        12.8248   18.8753   27.0662 H         1 UNK         0.0000 
     41 H41        14.8790   18.8990   28.2443 H         1 UNK         0.0000 
     42 H42        18.9420   17.9552   29.8967 H         1 UNK         0.0000 
     43 H43        18.7865   16.7485   28.6271 H         1 UNK         0.0000 
     44 H44        19.2989   18.4069   28.2362 H         1 UNK         0.0000 
     45 H45        18.3926   17.3909   26.3293 H         1 UNK         0.0000 
     46 H46        17.6734   16.9412   21.9673 H         1 UNK         0.0000 
     47 H47        16.0762   16.6300   22.6274 H         1 UNK         0.0000 
     48 H48        16.6270   18.3030   22.3617 H         1 UNK         0.0000 
     49 H49        14.8792   18.1667   24.0248 H         1 UNK         0.0000 
     50 H50        12.7252   16.5313   24.7417 H         1 UNK         0.0000 
     51 H51        12.0305   16.8084   26.2829 H         1 UNK         0.0000 
     52 H52         9.8119   17.1878   25.1238 H         1 UNK         0.0000 
     53 H53        10.5183   15.7157   24.5304 H         1 UNK         0.0000 
     54 H54        11.6871   20.1185   21.4224 H         1 UNK         0.0000 
     55 H55         9.6741   18.8376   18.6151 H         1 UNK         0.0000 
     56 H56        10.5797   20.1953   19.1943 H         1 UNK         0.0000 
     57 H57        14.5402   19.1855   15.4436 H         1 UNK         0.0000 
     58 H58        15.2716   19.8117   16.9407 H         1 UNK         0.0000 
     59 H59        15.5401   18.1197   16.4543 H         1 UNK         0.0000 
     60 H60        13.7578   16.4063   17.0275 H         1 UNK         0.0000 
     61 H61        11.3634   16.5180   18.4820 H         1 UNK         0.0000 
     62 H62        13.1117   21.2543   17.0076 H         1 UNK         0.0000 
     63 H63         9.3464   16.8544   20.0034 H         1 UNK         0.0000 
     64 H64         7.1158   17.4194   21.6642 H         1 UNK         0.0000 
     65 H65         5.8632   16.6190   22.6032 H         1 UNK         0.0000 
     66 H66         7.2344   17.3724   23.4221 H         1 UNK         0.0000 
     67 H67         7.0763   12.2998   22.6878 H         1 UNK         0.0000 
     68 H68         9.1957   11.0467   23.1054 H         1 UNK         0.0000 
     69 H69        10.7323   11.7885   22.7463 H         1 UNK         0.0000 
     70 H70         9.6716   11.2603   21.4266 H         1 UNK         0.0000 
     71 H71        10.8511   14.2079   22.0868 H         1 UNK         0.0000 
     72 H72        12.4713   21.2824   18.6285 H         1 UNK         0.0000 
@<TRIPOS>BOND
     1    1    2 2    
     2    2   18 1    
     3    2    3 am   BACKBONE|DICT|INTERRES
     4    3    4 1    
     5    3   15 1    
     6    4    5 1    
     7    4   39 1    
     8    4   40 1    
     9    5   14 ar   
    10    5    6 ar   
    11    6    7 ar   
    12    6   41 1    
    13    7    8 1    
    14    7   10 ar   
    15    8    9 1    
    16    9   42 1    
    17    9   43 1    
    18    9   44 1    
    19   10   11 ar   
    20   10   45 1    
    21   11   12 1    
    22   11   14 ar   
    23   12   13 1    
    24   13   46 1    
    25   13   47 1    
    26   13   48 1    
    27   14   49 1    
    28   15   16 1    
    29   15   50 1    
    30   15   51 1    
    31   16   17 1    
    32   16   52 1    
    33   16   53 1    
    34   17   30 ar   
    35   17   18 ar   
    36   18   19 ar   
    37   19   20 ar   
    38   19   54 1    
    39   20   21 1    
    40   20   29 ar   
    41   21   22 1    
    42   21   55 1    
    43   21   56 1    
    44   22   27 ar   
    45   22   23 ar   
    46   23   24 ar   
    47   23   28 1    
    48   24   25 1    
    49   24   26 ar   
    50   25   57 1    
    51   25   58 1    
    52   25   59 1    
    53   26   27 ar   
    54   26   60 1    
    55   27   61 1    
    56   28   62 1    
    57   28   72 1    
    58   29   30 ar   
    59   29   63 1    
    60   30   31 1    
    61   31   38 ar   
    62   31   32 ar   
    63   32   33 1    
    64   32   34 ar   
    65   33   64 1    
    66   33   65 1    
    67   33   66 1    
    68   34   35 ar   
    69   35   36 ar   
    70   35   67 1    
    71   36   37 1    
    72   36   38 ar   
    73   37   68 1    
    74   37   69 1    
    75   37   70 1    
    76   38   71 1    
@<TRIPOS>SUBSTRUCTURE
     1 UNK         1 GROUP             0       ****    0 ROOT    
