/home/yujie/leadopt/data/result/selection/WDR5/lig_13.sdf:1
                    3D
 Schrodinger Suite 2020-3.
 70 74  0  0  1  0            999 V2000
   12.6839   20.3621   23.8158 O   0  0  0  0  0  0
   12.0731   19.3138   24.0358 C   0  0  0  0  0  0
   12.0995   18.7540   25.2817 N   0  0  0  0  0  0
   12.9167   19.3774   26.3436 C   0  0  0  0  0  0
   14.3755   18.9185   26.4301 C   0  0  0  0  0  0
   15.1038   18.5144   25.3026 C   0  0  0  0  0  0
   16.4399   18.1018   25.4166 C   0  0  0  0  0  0
   17.2271   17.6797   24.3621 O   0  0  0  0  0  0
   16.6539   17.5566   23.0646 C   0  0  0  0  0  0
   17.0450   18.1172   26.6726 C   0  0  0  0  0  0
   16.3381   18.5224   27.8137 C   0  0  0  0  0  0
   16.8693   18.5664   29.0872 O   0  0  0  0  0  0
   18.2395   18.2271   29.2784 C   0  0  0  0  0  0
   15.0057   18.9123   27.6765 C   0  0  0  0  0  0
   11.2711   17.6017   25.6865 C   0  0  0  0  0  0
   10.8674   16.6488   24.5449 C   0  0  0  0  0  0
   10.6725   17.3335   23.2023 C   0  0  0  0  0  0
   11.2733   18.5826   22.9744 C   0  0  0  0  0  0
   11.2056   19.1639   21.6974 C   0  0  0  0  0  0
   10.5461   18.5185   20.6508 C   0  0  0  0  0  0
   10.5752   19.0915   19.2384 C   0  0  0  0  0  0
   11.7290   18.6403   18.4584 N   0  3  0  0  0  0
   12.6825   19.4306   17.8328 C   0  0  0  0  0  0
   13.5937   18.5991   17.1994 N   0  0  0  0  0  0
   14.7657   19.0131   16.4442 C   0  0  0  0  0  0
   13.2024   17.2880   17.4259 C   0  0  0  0  0  0
   12.0429   17.3162   18.1847 C   0  0  0  0  0  0
   12.7054   20.7826   17.8265 N   0  0  0  0  0  0
    9.8972   17.3132   20.8950 C   0  0  0  0  0  0
    9.9598   16.7210   22.1547 C   0  0  0  0  0  0
    9.3197   15.3879   22.3056 C   0  0  0  0  0  0
    9.8532   14.1141   22.2266 C   0  0  0  0  0  0
    8.7987   13.2196   22.4322 C   0  0  0  0  0  0
    8.8243   11.7089   22.4477 C   0  0  0  0  0  0
    7.6727   13.8662   22.6285 N   0  0  0  0  0  0
    7.9864   15.1684   22.5679 N   0  0  0  0  0  0
    6.9195   16.1457   22.7192 C   0  0  0  0  0  0
   12.9164   20.4643   26.2438 H   0  0  0  0  0  0
   12.4348   19.1866   27.3040 H   0  0  0  0  0  0
   14.6332   18.5210   24.3329 H   0  0  0  0  0  0
   17.4081   17.1875   22.3708 H   0  0  0  0  0  0
   15.8280   16.8433   23.0634 H   0  0  0  0  0  0
   16.3034   18.5175   22.6865 H   0  0  0  0  0  0
   18.0768   17.8079   26.7371 H   0  0  0  0  0  0
   18.4905   18.3354   30.3345 H   0  0  0  0  0  0
   18.4401   17.1913   28.9953 H   0  0  0  0  0  0
   18.8997   18.8897   28.7151 H   0  0  0  0  0  0
   14.4644   19.2259   28.5573 H   0  0  0  0  0  0
   11.6028   17.1083   26.6011 H   0  0  0  0  0  0
   10.3253   18.0540   25.9924 H   0  0  0  0  0  0
    9.9800   16.0844   24.8396 H   0  0  0  0  0  0
   11.6512   15.8961   24.4409 H   0  0  0  0  0  0
   11.6730   20.1166   21.4950 H   0  0  0  0  0  0
    9.6729   18.8216   18.6884 H   0  0  0  0  0  0
   10.5671   20.1793   19.2810 H   0  0  0  0  0  0
   14.4540   19.3557   15.4562 H   0  0  0  0  0  0
   15.2726   19.8199   16.9747 H   0  0  0  0  0  0
   15.4511   18.1745   16.3230 H   0  0  0  0  0  0
   13.7672   16.4566   17.0261 H   0  0  0  0  0  0
   11.4199   16.5148   18.5571 H   0  0  0  0  0  0
   12.9289   21.2873   16.9813 H   0  0  0  0  0  0
    9.3796   16.8153   20.0869 H   0  0  0  0  0  0
   10.8830   13.8500   22.0331 H   0  0  0  0  0  0
    9.7720   11.3129   22.0821 H   0  0  0  0  0  0
    8.0373   11.2829   21.8257 H   0  0  0  0  0  0
    8.6912   11.3161   23.4561 H   0  0  0  0  0  0
    7.3371   17.1358   22.9053 H   0  0  0  0  0  0
    6.3239   16.1722   21.8073 H   0  0  0  0  0  0
    6.2818   15.8688   23.5598 H   0  0  0  0  0  0
   12.4154   21.3003   18.6456 H   0  0  0  0  0  0
  1  2  2  0  0  0
  2 18  1  0  0  0
  2  3  1  0  0  0
  3  4  1  0  0  0
  3 15  1  0  0  0
  4  5  1  0  0  0
  4 38  1  0  0  0
  4 39  1  0  0  0
  5 14  1  0  0  0
  5  6  2  0  0  0
  6  7  1  0  0  0
  6 40  1  0  0  0
  7  8  1  0  0  0
  7 10  2  0  0  0
  8  9  1  0  0  0
  9 41  1  0  0  0
  9 42  1  0  0  0
  9 43  1  0  0  0
 10 11  1  0  0  0
 10 44  1  0  0  0
 11 12  1  0  0  0
 11 14  2  0  0  0
 12 13  1  0  0  0
 13 45  1  0  0  0
 13 46  1  0  0  0
 13 47  1  0  0  0
 14 48  1  0  0  0
 15 16  1  0  0  0
 15 49  1  0  0  0
 15 50  1  0  0  0
 16 17  1  0  0  0
 16 51  1  0  0  0
 16 52  1  0  0  0
 17 30  1  0  0  0
 17 18  2  0  0  0
 18 19  1  0  0  0
 19 20  2  0  0  0
 19 53  1  0  0  0
 20 21  1  0  0  0
 20 29  1  0  0  0
 21 22  1  0  0  0
 21 54  1  0  0  0
 21 55  1  0  0  0
 22 27  1  0  0  0
 22 23  2  0  0  0
 23 24  1  0  0  0
 23 28  1  0  0  0
 24 25  1  0  0  0
 24 26  1  0  0  0
 25 56  1  0  0  0
 25 57  1  0  0  0
 25 58  1  0  0  0
 26 27  2  0  0  0
 26 59  1  0  0  0
 27 60  1  0  0  0
 28 61  1  0  0  0
 28 70  1  0  0  0
 29 30  2  0  0  0
 29 62  1  0  0  0
 30 31  1  0  0  0
 31 36  1  0  0  0
 31 32  2  0  0  0
 32 33  1  0  0  0
 32 63  1  0  0  0
 33 34  1  0  0  0
 33 35  2  0  0  0
 34 64  1  0  0  0
 34 65  1  0  0  0
 34 66  1  0  0  0
 35 36  1  0  0  0
 36 37  1  0  0  0
 37 67  1  0  0  0
 37 68  1  0  0  0
 37 69  1  0  0  0
M  CHG  1  22   1
M  END
> <s_m_source_file>
/home/yujie/leadopt/data/result/selection/WDR5/lig_13.sdf

> <i_m_source_file_index>
1

> <i_lp_mmshare_version>
51139

> <i_f3d_flags>
0

> <s_epik_input>
W0NIM11PYyhbY0hdMSlbY0hdYyhPW0NIM10pW2NIXWMxW0NIMl1OKFtDSDJdW0NIMl0yKUMoPU8pYyhjMjMpW2NIXWMoW0NIMl1uNC9jKD1OL1tIXSluKFtDSDNdKVtjSF1bY0hdNClbY0hdYzMtYzVbY0hdYyhbQ0gzXSlubjVbQ0gzXQ==

> <s_epik_cmdline>
J2VwaWtfcHl0aG9uJywgJy1waHQnLCAnMi4wJywgJy1waCcsICc3LjAnLCAnLXRuJywgJzgnLCAnLW1hJywgJzIwMCcsICctaW1hZScsICc8aW5maWxlLm1hZT4nLCAnLW9tYWUnLCAnPG91dGZpbGUubWFlPic=

> <r_lp_tautomer_probability>
1

> <r_epik_Ionization_Penalty>
  0.0017

> <r_epik_Ionization_Penalty_Charging>
  0.0000

> <r_epik_Ionization_Penalty_Neutral>
  0.0017

> <r_epik_State_Penalty>
 -0.0000

> <r_epik_Charging_Adjusted_Penalty>
0

> <i_epik_Tot_Q>
1

> <i_epik_Tot_abs_Q>
1

> <s_lp_Force_Field>
OPLS3e

> <r_lp_Energy>
46.2855

> <b_lp_Chiralities_Consistent>
1

> <s_lp_Variant>
/home/yujie/leadopt/data/result/selection/WDR5/lig_13.sdf:1-1

> <s_i_glide_gridfile>
glide-grid_WDR5

> <i_i_glide_lignum>
1

> <i_i_glide_rotatable_bonds>
7

> <r_i_docking_score>
-10.9110688417056

> <r_i_glide_ligand_efficiency>
-0.294893752478529

> <r_i_glide_ligand_efficiency_sa>
-0.982651404740069

> <r_i_glide_ligand_efficiency_ln>
-2.36635504002031

> <r_i_glide_gscore>
-10.9110688417056

> <r_i_glide_lipo>
-3.73646484721726

> <r_i_glide_hbond>
-0.562771327346687

> <r_i_glide_metal>
-0

> <r_i_glide_rewards>
-2.5408595279777

> <r_i_glide_evdw>
-60.565486907959

> <r_i_glide_ecoul>
-9.65764713287354

> <r_i_glide_erotb>
0.405948276165065

> <r_i_glide_esite>
0

> <r_i_glide_emodel>
-116.73491099203

> <r_i_glide_energy>
-70.2231340408325

> <r_i_glide_einternal>
7.36795139312744

> <i_i_glide_confnum>
22

> <i_i_glide_posenum>
324

> <r_i_glide_eff_state_penalty>
-0

$$$$
