@<TRIPOS>MOLECULE
/home/yujie/leadopt/data/result/selection/WDR5/lig_22.sdf:1
74   78    1
SMALL
USER_CHARGES


@<TRIPOS>ATOM
      1 O1         12.6775   20.1191   23.9584 O.2       1 UNK         0.0000 
      2 C2         12.1837   19.0097   24.1801 C.2       1 UNK         0.0000 
      3 N3         12.4068   18.3510   25.3600 N.am      1 UNK         0.0000 
      4 C4         13.2863   18.9616   26.3768 C.3       1 UNK         0.0000 
      5 C5         14.7503   18.5178   26.3897 C.ar      1 UNK         0.0000 
      6 C6         15.4274   18.1177   25.2314 C.ar      1 UNK         0.0000 
      7 C7         16.7737   17.7187   25.2895 C.ar      1 UNK         0.0000 
      8 O8         17.5219   17.3175   24.2020 O.3       1 UNK         0.0000 
      9 C9         16.8773   17.1545   22.9487 C.3       1 UNK         0.0000 
     10 C10        17.4349   17.7451   26.5163 C.ar      1 UNK         0.0000 
     11 C11        16.7777   18.1516   27.6860 C.ar      1 UNK         0.0000 
     12 O12        17.3705   18.2179   28.9327 O.3       1 UNK         0.0000 
     13 C13        18.7599   17.9280   29.0555 C.3       1 UNK         0.0000 
     14 C14        15.4363   18.5231   27.6066 C.ar      1 UNK         0.0000 
     15 C15        12.0291   16.9383   25.5810 C.3       1 UNK         0.0000 
     16 C16        10.7453   16.5101   24.8434 C.3       1 UNK         0.0000 
     17 C17        10.6605   17.0802   23.4400 C.ar      1 UNK         0.0000 
     18 C18        11.3127   18.2946   23.1663 C.ar      1 UNK         0.0000 
     19 C19        11.1954   18.8840   21.9003 C.ar      1 UNK         0.0000 
     20 C20        10.5136   18.2346   20.8758 C.ar      1 UNK         0.0000 
     21 C21        10.5292   18.8013   19.4677 C.3       1 UNK         0.0000 
     22 N22        11.5877   18.2195   18.6428 N.pl3     1 UNK         0.0000 
     23 C23        12.7053   18.8336   18.1088 C.ar      1 UNK         0.0000 
     24 C24        13.0676   20.2754   18.2255 C.3       1 UNK         0.0000 
     25 C25        12.1133   21.1298   17.4147 C.3       1 UNK         0.0000 
     26 C26        14.5390   20.5485   17.8265 C.3       1 UNK         0.0000 
     27 N27        13.4336   17.8883   17.4244 N.pl3     1 UNK         0.0000 
     28 C28        12.8043   16.6747   17.5161 C.ar      1 UNK         0.0000 
     29 C29        11.6730   16.8924   18.2849 C.ar      1 UNK         0.0000 
     30 C30         9.8837   17.0218   21.1358 C.ar      1 UNK         0.0000 
     31 C31         9.9602   16.4401   22.3996 C.ar      1 UNK         0.0000 
     32 C32         9.2831   15.1268   22.5576 C.ar      1 UNK         0.0000 
     33 C33         9.8451   13.8772   22.3656 C.ar      1 UNK         0.0000 
     34 N34         8.8354   12.9790   22.5656 N.pl3     1 UNK         0.0000 
     35 C35         8.9014   11.5304   22.4852 C.3       1 UNK         0.0000 
     36 N36         7.6824   13.5736   22.8983 N.2       1 UNK         0.0000 
     37 C37         7.9448   14.8683   22.9192 C.ar      1 UNK         0.0000 
     38 C38         6.8464   15.8542   23.2814 C.3       1 UNK         0.0000 
     39 F39         6.0728   15.3813   24.2565 F         1 UNK         0.0000 
     40 F40         7.3452   17.0123   23.7114 F         1 UNK         0.0000 
     41 F41         6.0733   16.1168   22.2268 F         1 UNK         0.0000 
     42 H42        13.2624   20.0516   26.3182 H         1 UNK         0.0000 
     43 H43        12.8609   18.7201   27.3522 H         1 UNK         0.0000 
     44 H44        14.9032   18.1242   24.2888 H         1 UNK         0.0000 
     45 H45        17.5995   16.7844   22.2205 H         1 UNK         0.0000 
     46 H46        16.0723   16.4238   23.0231 H         1 UNK         0.0000 
     47 H47        16.4783   18.0988   22.5754 H         1 UNK         0.0000 
     48 H48        18.4713   17.4461   26.5356 H         1 UNK         0.0000 
     49 H49        19.0691   18.0705   30.0911 H         1 UNK         0.0000 
     50 H50        18.9748   16.8918   28.7887 H         1 UNK         0.0000 
     51 H51        19.3678   18.5911   28.4362 H         1 UNK         0.0000 
     52 H52        14.9313   18.8343   28.5100 H         1 UNK         0.0000 
     53 H53        12.8116   16.3456   25.1035 H         1 UNK         0.0000 
     54 H54        12.0922   16.6272   26.6250 H         1 UNK         0.0000 
     55 H55         9.8781   16.8315   25.4207 H         1 UNK         0.0000 
     56 H56        10.6916   15.4214   24.8259 H         1 UNK         0.0000 
     57 H57        11.6745   19.8281   21.6785 H         1 UNK         0.0000 
     58 H58         9.5728   18.6198   18.9797 H         1 UNK         0.0000 
     59 H59        10.6353   19.8828   19.5106 H         1 UNK         0.0000 
     60 H60        12.8805   20.5212   19.2678 H         1 UNK         0.0000 
     61 H61        11.0990   21.1717   17.8102 H         1 UNK         0.0000 
     62 H62        12.5132   22.1184   17.4257 H         1 UNK         0.0000 
     63 H63        12.0738   20.8269   16.3762 H         1 UNK         0.0000 
     64 H64        15.2318   20.1180   18.5467 H         1 UNK         0.0000 
     65 H65        14.7883   20.1185   16.8545 H         1 UNK         0.0000 
     66 H66        14.7596   21.6169   17.8168 H         1 UNK         0.0000 
     67 H67        13.2304   15.7946   17.0562 H         1 UNK         0.0000 
     68 H68        10.9193   16.2037   18.6268 H         1 UNK         0.0000 
     69 H69         9.3471   16.5185   20.3451 H         1 UNK         0.0000 
     70 H70        10.8410   13.5527   22.0976 H         1 UNK         0.0000 
     71 H71         9.8706   11.2205   22.0920 H         1 UNK         0.0000 
     72 H72         8.1145   11.1638   21.8271 H         1 UNK         0.0000 
     73 H73         8.7777   11.1027   23.4806 H         1 UNK         0.0000 
     74 H74        14.3061   18.0645   16.9472 H         1 UNK         0.0000 
@<TRIPOS>BOND
     1    1    2 2    
     2    2   18 1    
     3    2    3 am   BACKBONE|DICT|INTERRES
     4    3    4 1    
     5    3   15 1    
     6    4    5 1    
     7    4   42 1    
     8    4   43 1    
     9    5   14 ar   
    10    5    6 ar   
    11    6    7 ar   
    12    6   44 1    
    13    7    8 1    
    14    7   10 ar   
    15    8    9 1    
    16    9   45 1    
    17    9   46 1    
    18    9   47 1    
    19   10   11 ar   
    20   10   48 1    
    21   11   12 1    
    22   11   14 ar   
    23   12   13 1    
    24   13   49 1    
    25   13   50 1    
    26   13   51 1    
    27   14   52 1    
    28   15   16 1    
    29   15   53 1    
    30   15   54 1    
    31   16   17 1    
    32   16   55 1    
    33   16   56 1    
    34   17   31 ar   
    35   17   18 ar   
    36   18   19 ar   
    37   19   20 ar   
    38   19   57 1    
    39   20   21 1    
    40   20   30 ar   
    41   21   22 1    
    42   21   58 1    
    43   21   59 1    
    44   22   29 ar   
    45   22   23 ar   
    46   23   24 1    
    47   23   27 ar   
    48   24   25 1    
    49   24   26 1    
    50   24   60 1    
    51   25   61 1    
    52   25   62 1    
    53   25   63 1    
    54   26   64 1    
    55   26   65 1    
    56   26   66 1    
    57   27   28 ar   
    58   27   74 1    
    59   28   29 ar   
    60   28   67 1    
    61   29   68 1    
    62   30   31 ar   
    63   30   69 1    
    64   31   32 1    
    65   32   37 ar   
    66   32   33 ar   
    67   33   34 ar   
    68   33   70 1    
    69   34   35 1    
    70   34   36 ar   
    71   35   71 1    
    72   35   72 1    
    73   35   73 1    
    74   36   37 ar   
    75   37   38 1    
    76   38   39 1    
    77   38   40 1    
    78   38   41 1    
@<TRIPOS>SUBSTRUCTURE
     1 UNK         1 GROUP             0       ****    0 ROOT    
