@<TRIPOS>MOLECULE
/home/yujie/leadopt/data/result/selection/WDR5/lig_23.sdf:1
71   76    1
SMALL
USER_CHARGES


@<TRIPOS>ATOM
      1 O1         12.5334   20.2361   23.8268 O.2       1 UNK         0.0000 
      2 C2         12.0775   19.1073   24.0344 C.2       1 UNK         0.0000 
      3 N3         12.2734   18.4684   25.2287 N.am      1 UNK         0.0000 
      4 C4         13.1107   19.1017   26.2652 C.3       1 UNK         0.0000 
      5 C5         14.5822   18.6832   26.3301 C.ar      1 UNK         0.0000 
      6 C6         15.2713   18.1599   25.2279 C.ar      1 UNK         0.0000 
      7 C7         16.6260   17.8051   25.3350 C.ar      1 UNK         0.0000 
      8 O8         17.3974   17.3185   24.3000 O.3       1 UNK         0.0000 
      9 C9         16.8189   17.1753   23.0130 C.3       1 UNK         0.0000 
     10 C10        17.2754   17.9712   26.5568 C.ar      1 UNK         0.0000 
     11 C11        16.6075   18.5000   27.6685 C.ar      1 UNK         0.0000 
     12 O12        17.1950   18.7202   28.8983 O.3       1 UNK         0.0000 
     13 C13        18.5898   18.4739   29.0493 C.3       1 UNK         0.0000 
     14 C14        15.2607   18.8389   27.5420 C.ar      1 UNK         0.0000 
     15 C15        11.9042   17.0550   25.4612 C.3       1 UNK         0.0000 
     16 C16        10.6497   16.6054   24.6914 C.3       1 UNK         0.0000 
     17 C17        10.6190   17.1420   23.2721 C.ar      1 UNK         0.0000 
     18 C18        11.2731   18.3552   22.9953 C.ar      1 UNK         0.0000 
     19 C19        11.1942   18.9183   21.7120 C.ar      1 UNK         0.0000 
     20 C20        10.5501   18.2425   20.6793 C.ar      1 UNK         0.0000 
     21 C21        10.5796   18.7897   19.2607 C.3       1 UNK         0.0000 
     22 N22        11.7250   18.3099   18.4873 N.pl3     1 UNK         0.0000 
     23 C23        12.7036   19.0322   17.8265 C.ar      1 UNK         0.0000 
     24 C24        12.7529   20.5514   17.7362 C.3       1 UNK         0.0000 
     25 C25        14.0786   21.2689   17.7377 C.3       1 UNK         0.0000 
     26 C26        13.2729   21.1816   16.4656 C.3       1 UNK         0.0000 
     27 N27        13.5793   18.2519   17.2227 N.2       1 UNK         0.0000 
     28 C28        13.1719   17.0186   17.4384 C.ar      1 UNK         0.0000 
     29 C29        12.0423   16.9978   18.2324 C.ar      1 UNK         0.0000 
     30 C30         9.9305   17.0275   20.9427 C.ar      1 UNK         0.0000 
     31 C31         9.9671   16.4691   22.2220 C.ar      1 UNK         0.0000 
     32 C32         9.3028   15.1509   22.4025 C.ar      1 UNK         0.0000 
     33 C33         9.9046   13.9044   22.3657 C.ar      1 UNK         0.0000 
     34 N34         8.8942   12.9979   22.5127 N.pl3     1 UNK         0.0000 
     35 C35         8.9904   11.5503   22.5270 C.3       1 UNK         0.0000 
     36 N36         7.7029   13.5843   22.6872 N.2       1 UNK         0.0000 
     37 C37         7.9378   14.8822   22.6252 C.ar      1 UNK         0.0000 
     38 C38         6.7895   15.8645   22.7727 C.3       1 UNK         0.0000 
     39 F39         5.6707   15.3819   22.2425 F         1 UNK         0.0000 
     40 F40         6.5514   16.1364   24.0563 F         1 UNK         0.0000 
     41 F41         7.0429   17.0178   22.1576 F         1 UNK         0.0000 
     42 H42        13.0709   20.1908   26.1929 H         1 UNK         0.0000 
     43 H43        12.6591   18.8669   27.2296 H         1 UNK         0.0000 
     44 H44        14.7541   18.0504   24.2890 H         1 UNK         0.0000 
     45 H45        17.5693   16.7982   22.3175 H         1 UNK         0.0000 
     46 H46        15.9957   16.4629   23.0287 H         1 UNK         0.0000 
     47 H47        16.4612   18.1317   22.6281 H         1 UNK         0.0000 
     48 H48        18.3160   17.6992   26.6154 H         1 UNK         0.0000 
     49 H49        18.8948   18.7354   30.0622 H         1 UNK         0.0000 
     50 H50        18.8285   17.4207   28.8937 H         1 UNK         0.0000 
     51 H51        19.1816   19.0796   28.3603 H         1 UNK         0.0000 
     52 H52        14.7470   19.2481   28.3993 H         1 UNK         0.0000 
     53 H53        12.7100   16.4608   25.0242 H         1 UNK         0.0000 
     54 H54        11.9269   16.7708   26.5136 H         1 UNK         0.0000 
     55 H55         9.7609   16.9418   25.2254 H         1 UNK         0.0000 
     56 H56        10.5972   15.5164   24.7033 H         1 UNK         0.0000 
     57 H57        11.6732   19.8625   21.4857 H         1 UNK         0.0000 
     58 H58        10.5734   19.8753   19.2993 H         1 UNK         0.0000 
     59 H59         9.6730   18.5181   18.7224 H         1 UNK         0.0000 
     60 H60        11.9274   21.0717   18.2168 H         1 UNK         0.0000 
     61 H61        14.9989   20.6880   17.8264 H         1 UNK         0.0000 
     62 H62        14.1487   22.2388   18.2259 H         1 UNK         0.0000 
     63 H63        12.8718   22.1154   16.0855 H         1 UNK         0.0000 
     64 H64        13.5975   20.5186   15.6632 H         1 UNK         0.0000 
     65 H65        13.6910   16.1599   17.0407 H         1 UNK         0.0000 
     66 H66        11.4456   16.1859   18.6246 H         1 UNK         0.0000 
     67 H67         9.4285   16.5145   20.1380 H         1 UNK         0.0000 
     68 H68        10.9276   13.5843   22.2264 H         1 UNK         0.0000 
     69 H69         9.9944   11.2412   22.2293 H         1 UNK         0.0000 
     70 H70         8.7917   11.1809   23.5333 H         1 UNK         0.0000 
     71 H71         8.2681   11.1274   21.8266 H         1 UNK         0.0000 
@<TRIPOS>BOND
     1    1    2 2    
     2    2   18 1    
     3    2    3 am   BACKBONE|DICT|INTERRES
     4    3    4 1    
     5    3   15 1    
     6    4    5 1    
     7    4   42 1    
     8    4   43 1    
     9    5   14 ar   
    10    5    6 ar   
    11    6    7 ar   
    12    6   44 1    
    13    7    8 1    
    14    7   10 ar   
    15    8    9 1    
    16    9   45 1    
    17    9   46 1    
    18    9   47 1    
    19   10   11 ar   
    20   10   48 1    
    21   11   12 1    
    22   11   14 ar   
    23   12   13 1    
    24   13   49 1    
    25   13   50 1    
    26   13   51 1    
    27   14   52 1    
    28   15   16 1    
    29   15   53 1    
    30   15   54 1    
    31   16   17 1    
    32   16   55 1    
    33   16   56 1    
    34   17   31 ar   
    35   17   18 ar   
    36   18   19 ar   
    37   19   20 ar   
    38   19   57 1    
    39   20   21 1    
    40   20   30 ar   
    41   21   22 1    
    42   21   58 1    
    43   21   59 1    
    44   22   29 ar   
    45   22   23 ar   
    46   23   24 1    
    47   23   27 ar   
    48   24   26 1    
    49   24   25 1    
    50   24   60 1    
    51   25   26 1    
    52   25   61 1    
    53   25   62 1    
    54   26   63 1    
    55   26   64 1    
    56   27   28 ar   
    57   28   29 ar   
    58   28   65 1    
    59   29   66 1    
    60   30   31 ar   
    61   30   67 1    
    62   31   32 1    
    63   32   37 ar   
    64   32   33 ar   
    65   33   34 ar   
    66   33   68 1    
    67   34   35 1    
    68   34   36 ar   
    69   35   69 1    
    70   35   70 1    
    71   35   71 1    
    72   36   37 ar   
    73   37   38 1    
    74   38   39 1    
    75   38   40 1    
    76   38   41 1    
@<TRIPOS>SUBSTRUCTURE
     1 UNK         1 GROUP             0       ****    0 ROOT    
