@<TRIPOS>MOLECULE
/home/yujie/leadopt/data/result/selection/WDR5/lig_2.sdf:1
71   75    1
SMALL
USER_CHARGES


@<TRIPOS>ATOM
      1 O1         12.4877   20.3057   23.8313 O.2       1 UNK         0.0000 
      2 C2         12.0946   19.1568   24.0504 C.2       1 UNK         0.0000 
      3 N3         12.3557   18.5213   25.2362 N.am      1 UNK         0.0000 
      4 C4         13.2314   19.1600   26.2379 C.3       1 UNK         0.0000 
      5 C5         14.6820   18.6739   26.3019 C.ar      1 UNK         0.0000 
      6 C6         15.3489   18.1294   25.1947 C.ar      1 UNK         0.0000 
      7 C7         16.7035   17.7614   25.2860 C.ar      1 UNK         0.0000 
      8 O8         17.4702   17.2949   24.2406 O.3       1 UNK         0.0000 
      9 C9         16.8710   17.1180   22.9670 C.3       1 UNK         0.0000 
     10 C10        17.3644   17.9139   26.5046 C.ar      1 UNK         0.0000 
     11 C11        16.7147   18.4459   27.6249 C.ar      1 UNK         0.0000 
     12 O12        17.3182   18.6599   28.8505 O.3       1 UNK         0.0000 
     13 C13        18.7180   18.4292   28.9776 C.3       1 UNK         0.0000 
     14 C14        15.3747   18.8143   27.5080 C.ar      1 UNK         0.0000 
     15 C15        11.9645   17.1200   25.5099 C.3       1 UNK         0.0000 
     16 C16        10.6577   16.7198   24.8056 C.3       1 UNK         0.0000 
     17 C17        10.6742   17.1412   23.3452 C.ar      1 UNK         0.0000 
     18 C18        11.2928   18.3653   23.0338 C.ar      1 UNK         0.0000 
     19 C19        11.1949   18.9008   21.7418 C.ar      1 UNK         0.0000 
     20 C20        10.5938   18.1695   20.7228 C.ar      1 UNK         0.0000 
     21 C21        10.5644   18.7104   19.2999 C.3       1 UNK         0.0000 
     22 N22        11.7294   18.3334   18.5046 N.pl3     1 UNK         0.0000 
     23 C23        12.6032   19.1880   17.8502 C.ar      1 UNK         0.0000 
     24 N24        13.5462   18.4217   17.1847 N.pl3     1 UNK         0.0000 
     25 C25        14.6430   18.9241   16.3704 C.3       1 UNK         0.0000 
     26 C26        13.2602   17.0858   17.4261 C.ar      1 UNK         0.0000 
     27 C27        12.1296   17.0321   18.2260 C.ar      1 UNK         0.0000 
     28 N28        12.5268   20.5405   17.8271 N.pl3     1 UNK         0.0000 
     29 C29        10.0734   16.9107   21.0065 C.ar      1 UNK         0.0000 
     30 C30        10.0973   16.3845   22.3033 C.ar      1 UNK         0.0000 
     31 C31         9.5050   15.0319   22.5108 C.ar      1 UNK         0.0000 
     32 C32        10.2635   13.9199   22.9322 C.ar      1 UNK         0.0000 
     33 O33        11.6083   14.1147   23.1946 O.3       1 UNK         0.0000 
     34 C34        12.3827   13.0340   23.7140 C.3       1 UNK         0.0000 
     35 C35         9.6308   12.6702   23.0642 C.ar      1 UNK         0.0000 
     36 C36         8.2813   12.5222   22.7612 C.ar      1 UNK         0.0000 
     37 F37         7.6767   11.3187   22.8857 F         1 UNK         0.0000 
     38 C38         7.5445   13.6194   22.3361 C.ar      1 UNK         0.0000 
     39 C39         8.1467   14.8653   22.2297 C.ar      1 UNK         0.0000 
     40 H40        13.2442   20.2471   26.1259 H         1 UNK         0.0000 
     41 H41        12.7825   18.9778   27.2167 H         1 UNK         0.0000 
     42 H42        14.8172   18.0443   24.2590 H         1 UNK         0.0000 
     43 H43        17.6178   16.7550   22.2602 H         1 UNK         0.0000 
     44 H44        16.0700   16.3821   23.0175 H         1 UNK         0.0000 
     45 H45        16.4749   18.0571   22.5819 H         1 UNK         0.0000 
     46 H46        18.4031   17.6253   26.5463 H         1 UNK         0.0000 
     47 H47        19.0417   18.6810   29.9881 H         1 UNK         0.0000 
     48 H48        18.9730   17.3832   28.8042 H         1 UNK         0.0000 
     49 H49        19.2884   19.0534   28.2875 H         1 UNK         0.0000 
     50 H50        14.8810   19.2402   28.3696 H         1 UNK         0.0000 
     51 H51        12.7307   16.4721   25.0810 H         1 UNK         0.0000 
     52 H52        11.9929   16.8828   26.5737 H         1 UNK         0.0000 
     53 H53         9.8192   17.1983   25.3101 H         1 UNK         0.0000 
     54 H54        10.5004   15.6518   24.9375 H         1 UNK         0.0000 
     55 H55        11.6379   19.8614   21.5046 H         1 UNK         0.0000 
     56 H56         9.6740   18.3634   18.7823 H         1 UNK         0.0000 
     57 H57        10.4767   19.7989   19.3270 H         1 UNK         0.0000 
     58 H58        14.2426   19.3255   15.4391 H         1 UNK         0.0000 
     59 H59        15.1742   19.7088   16.9117 H         1 UNK         0.0000 
     60 H60        15.3396   18.1199   16.1319 H         1 UNK         0.0000 
     61 H61        13.8686   16.2957   17.0065 H         1 UNK         0.0000 
     62 H62        11.5859   16.1876   18.6265 H         1 UNK         0.0000 
     63 H63        12.7153   21.0466   16.9694 H         1 UNK         0.0000 
     64 H64         9.6640   16.3228   20.1958 H         1 UNK         0.0000 
     65 H65        13.4025   13.3746   23.8822 H         1 UNK         0.0000 
     66 H66        11.9941   12.6859   24.6719 H         1 UNK         0.0000 
     67 H67        12.4268   12.1862   23.0264 H         1 UNK         0.0000 
     68 H68        10.1686   11.7891   23.3872 H         1 UNK         0.0000 
     69 H69         6.4988   13.5107   22.0837 H         1 UNK         0.0000 
     70 H70         7.5555   15.7093   21.9041 H         1 UNK         0.0000 
     71 H71        12.2225   21.0546   18.6468 H         1 UNK         0.0000 
@<TRIPOS>BOND
     1    1    2 2    
     2    2   18 1    
     3    2    3 am   BACKBONE|DICT|INTERRES
     4    3    4 1    
     5    3   15 1    
     6    4    5 1    
     7    4   40 1    
     8    4   41 1    
     9    5   14 ar   
    10    5    6 ar   
    11    6    7 ar   
    12    6   42 1    
    13    7    8 1    
    14    7   10 ar   
    15    8    9 1    
    16    9   43 1    
    17    9   44 1    
    18    9   45 1    
    19   10   11 ar   
    20   10   46 1    
    21   11   12 1    
    22   11   14 ar   
    23   12   13 1    
    24   13   47 1    
    25   13   48 1    
    26   13   49 1    
    27   14   50 1    
    28   15   16 1    
    29   15   51 1    
    30   15   52 1    
    31   16   17 1    
    32   16   53 1    
    33   16   54 1    
    34   17   30 ar   
    35   17   18 ar   
    36   18   19 ar   
    37   19   20 ar   
    38   19   55 1    
    39   20   21 1    
    40   20   29 ar   
    41   21   22 1    
    42   21   56 1    
    43   21   57 1    
    44   22   27 ar   
    45   22   23 ar   
    46   23   24 ar   
    47   23   28 1    
    48   24   25 1    
    49   24   26 ar   
    50   25   58 1    
    51   25   59 1    
    52   25   60 1    
    53   26   27 ar   
    54   26   61 1    
    55   27   62 1    
    56   28   63 1    
    57   28   71 1    
    58   29   30 ar   
    59   29   64 1    
    60   30   31 1    
    61   31   39 ar   
    62   31   32 ar   
    63   32   33 1    
    64   32   35 ar   
    65   33   34 1    
    66   34   65 1    
    67   34   66 1    
    68   34   67 1    
    69   35   36 ar   
    70   35   68 1    
    71   36   37 1    
    72   36   38 ar   
    73   38   39 ar   
    74   38   69 1    
    75   39   70 1    
@<TRIPOS>SUBSTRUCTURE
     1 UNK         1 GROUP             0       ****    0 ROOT    
