@<TRIPOS>MOLECULE
/home/yujie/leadopt/data/result/selection/WDR5/lig_11.sdf:1
70   74    1
SMALL
USER_CHARGES


@<TRIPOS>ATOM
      1 O1         12.8306   20.1184   23.6382 O.2       1 UNK         0.0000 
      2 C2         12.1373   19.1392   23.9284 C.2       1 UNK         0.0000 
      3 N3         12.1543   18.6157   25.1913 N.am      1 UNK         0.0000 
      4 C4         12.9938   19.2465   26.2292 C.3       1 UNK         0.0000 
      5 C5         14.4563   18.7956   26.3140 C.ar      1 UNK         0.0000 
      6 C6         15.1476   18.2337   25.2310 C.ar      1 UNK         0.0000 
      7 C7         16.5036   17.8879   25.3449 C.ar      1 UNK         0.0000 
      8 O8         17.2733   17.3604   24.3255 O.3       1 UNK         0.0000 
      9 C9         16.7095   17.2146   23.0278 C.3       1 UNK         0.0000 
     10 C10        17.1523   18.0950   26.5613 C.ar      1 UNK         0.0000 
     11 C11        16.4781   18.6414   27.6617 C.ar      1 UNK         0.0000 
     12 O12        17.0598   18.8911   28.8884 O.3       1 UNK         0.0000 
     13 C13        18.4570   18.6659   29.0482 C.3       1 UNK         0.0000 
     14 C14        15.1318   18.9764   27.5234 C.ar      1 UNK         0.0000 
     15 C15        11.2796   17.5116   25.6365 C.3       1 UNK         0.0000 
     16 C16        10.8405   16.5395   24.5249 C.3       1 UNK         0.0000 
     17 C17        10.6384   17.2010   23.1733 C.ar      1 UNK         0.0000 
     18 C18        11.2599   18.4338   22.9160 C.ar      1 UNK         0.0000 
     19 C19        11.1773   19.0032   21.6371 C.ar      1 UNK         0.0000 
     20 C20        10.4928   18.3597   20.6102 C.ar      1 UNK         0.0000 
     21 C21        10.5389   18.9152   19.1939 C.3       1 UNK         0.0000 
     22 N22        11.7238   18.4959   18.4460 N.pl3     1 UNK         0.0000 
     23 C23        12.6654   19.3099   17.8336 C.ar      1 UNK         0.0000 
     24 N24        13.5996   18.5022   17.2024 N.pl3     1 UNK         0.0000 
     25 C25        14.7570   18.9476   16.4415 C.3       1 UNK         0.0000 
     26 C26        13.2382   17.1817   17.4259 C.ar      1 UNK         0.0000 
     27 C27        12.0776   17.1800   18.1838 C.ar      1 UNK         0.0000 
     28 N28        12.6561   20.6636   17.8264 N.pl3     1 UNK         0.0000 
     29 C29         9.8272   17.1666   20.8787 C.ar      1 UNK         0.0000 
     30 C30         9.9025   16.5841   22.1442 C.ar      1 UNK         0.0000 
     31 C31         9.2562   15.2569   22.3206 C.ar      1 UNK         0.0000 
     32 C32         9.8865   14.0237   22.3131 C.ar      1 UNK         0.0000 
     33 N33         8.8974   13.0970   22.4858 N.pl3     1 UNK         0.0000 
     34 C34         9.0295   11.6525   22.5499 C.3       1 UNK         0.0000 
     35 N35         7.6917   13.6597   22.6246 N.2       1 UNK         0.0000 
     36 C36         7.8939   14.9581   22.5228 C.ar      1 UNK         0.0000 
     37 C37         6.7142   15.9007   22.6161 C.3       1 UNK         0.0000 
     38 H38        12.9919   20.3318   26.1044 H         1 UNK         0.0000 
     39 H39        12.5276   19.0758   27.2006 H         1 UNK         0.0000 
     40 H40        14.6396   18.0883   24.2932 H         1 UNK         0.0000 
     41 H41        17.4646   16.8216   22.3466 H         1 UNK         0.0000 
     42 H42        15.8745   16.5141   23.0347 H         1 UNK         0.0000 
     43 H43        16.3719   18.1722   22.6291 H         1 UNK         0.0000 
     44 H44        18.1960   17.8293   26.6253 H         1 UNK         0.0000 
     45 H45        18.7536   18.9448   30.0588 H         1 UNK         0.0000 
     46 H46        18.7132   17.6145   28.9088 H         1 UNK         0.0000 
     47 H47        19.0428   19.2713   28.3551 H         1 UNK         0.0000 
     48 H48        14.6185   19.4105   28.3685 H         1 UNK         0.0000 
     49 H49        11.5983   17.0356   26.5649 H         1 UNK         0.0000 
     50 H50        10.3508   18.0040   25.9291 H         1 UNK         0.0000 
     51 H51         9.9414   16.0087   24.8418 H         1 UNK         0.0000 
     52 H52        11.6018   15.7643   24.4270 H         1 UNK         0.0000 
     53 H53        11.6731   19.9378   21.4147 H         1 UNK         0.0000 
     54 H54         9.6730   18.5899   18.6270 H         1 UNK         0.0000 
     55 H55        10.4779   20.0039   19.2166 H         1 UNK         0.0000 
     56 H56        14.4271   19.3075   15.4667 H         1 UNK         0.0000 
     57 H57        15.2697   19.7465   16.9790 H         1 UNK         0.0000 
     58 H58        15.4504   18.1204   16.2905 H         1 UNK         0.0000 
     59 H59        13.8253   16.3646   17.0273 H         1 UNK         0.0000 
     60 H60        11.4755   16.3633   18.5599 H         1 UNK         0.0000 
     61 H61        12.8919   21.1724   16.9866 H         1 UNK         0.0000 
     62 H62         9.2953   16.6628   20.0860 H         1 UNK         0.0000 
     63 H63        10.9180   13.7234   22.1896 H         1 UNK         0.0000 
     64 H64        10.0543   11.3571   22.3180 H         1 UNK         0.0000 
     65 H65         8.3546   11.1920   21.8281 H         1 UNK         0.0000 
     66 H66         8.7868   11.3072   23.5554 H         1 UNK         0.0000 
     67 H67         7.0170   16.9451   22.5323 H         1 UNK         0.0000 
     68 H68         5.9857   15.7177   21.8248 H         1 UNK         0.0000 
     69 H69         6.1896   15.7973   23.5668 H         1 UNK         0.0000 
     70 H70        12.3402   21.1773   18.6402 H         1 UNK         0.0000 
@<TRIPOS>BOND
     1    1    2 2    
     2    2   18 1    
     3    2    3 am   BACKBONE|DICT|INTERRES
     4    3    4 1    
     5    3   15 1    
     6    4    5 1    
     7    4   38 1    
     8    4   39 1    
     9    5   14 ar   
    10    5    6 ar   
    11    6    7 ar   
    12    6   40 1    
    13    7    8 1    
    14    7   10 ar   
    15    8    9 1    
    16    9   41 1    
    17    9   42 1    
    18    9   43 1    
    19   10   11 ar   
    20   10   44 1    
    21   11   12 1    
    22   11   14 ar   
    23   12   13 1    
    24   13   45 1    
    25   13   46 1    
    26   13   47 1    
    27   14   48 1    
    28   15   16 1    
    29   15   49 1    
    30   15   50 1    
    31   16   17 1    
    32   16   51 1    
    33   16   52 1    
    34   17   30 ar   
    35   17   18 ar   
    36   18   19 ar   
    37   19   20 ar   
    38   19   53 1    
    39   20   21 1    
    40   20   29 ar   
    41   21   22 1    
    42   21   54 1    
    43   21   55 1    
    44   22   27 ar   
    45   22   23 ar   
    46   23   24 ar   
    47   23   28 1    
    48   24   25 1    
    49   24   26 ar   
    50   25   56 1    
    51   25   57 1    
    52   25   58 1    
    53   26   27 ar   
    54   26   59 1    
    55   27   60 1    
    56   28   61 1    
    57   28   70 1    
    58   29   30 ar   
    59   29   62 1    
    60   30   31 1    
    61   31   36 ar   
    62   31   32 ar   
    63   32   33 ar   
    64   32   63 1    
    65   33   34 1    
    66   33   35 ar   
    67   34   64 1    
    68   34   65 1    
    69   34   66 1    
    70   35   36 ar   
    71   36   37 1    
    72   37   67 1    
    73   37   68 1    
    74   37   69 1    
@<TRIPOS>SUBSTRUCTURE
     1 UNK         1 GROUP             0       ****    0 ROOT    
