@<TRIPOS>MOLECULE
/home/yujie/leadopt/data/result/selection/WDR5/lig_3.sdf:1
68   72    1
SMALL
USER_CHARGES


@<TRIPOS>ATOM
      1 O1         12.8731   20.2212   23.7754 O.2       1 UNK         0.0000 
      2 C2         12.2055   19.2365   24.0915 C.2       1 UNK         0.0000 
      3 N3         12.2359   18.7586   25.3723 N.am      1 UNK         0.0000 
      4 C4         13.0878   19.4188   26.3810 C.3       1 UNK         0.0000 
      5 C5         14.5331   18.9177   26.4802 C.ar      1 UNK         0.0000 
      6 C6         15.2197   19.0942   27.6842 C.ar      1 UNK         0.0000 
      7 C7         16.5513   18.7027   27.8243 C.ar      1 UNK         0.0000 
      8 O8         17.1475   18.9522   29.0447 O.3       1 UNK         0.0000 
      9 C9         18.5282   18.6531   29.2134 C.3       1 UNK         0.0000 
     10 C10        17.1969   18.1027   26.7335 C.ar      1 UNK         0.0000 
     11 C11        16.5359   17.9023   25.5229 C.ar      1 UNK         0.0000 
     12 O12        17.2727   17.3184   24.5087 O.3       1 UNK         0.0000 
     13 C13        16.6826   17.1491   23.2261 C.3       1 UNK         0.0000 
     14 C14        15.1978   18.3089   25.4063 C.ar      1 UNK         0.0000 
     15 C15        11.3893   17.6520   25.8543 C.3       1 UNK         0.0000 
     16 C16        11.0196   16.6209   24.7752 C.3       1 UNK         0.0000 
     17 C17        10.7838   17.2244   23.3988 C.ar      1 UNK         0.0000 
     18 C18        11.3533   18.4720   23.0989 C.ar      1 UNK         0.0000 
     19 C19        11.2440   18.9953   21.8006 C.ar      1 UNK         0.0000 
     20 C20        10.5957   18.2827   20.7936 C.ar      1 UNK         0.0000 
     21 C21        10.5627   18.8123   19.3628 C.3       1 UNK         0.0000 
     22 N22        11.7106   18.4142   18.5466 N.pl3     1 UNK         0.0000 
     23 C23        12.5862   19.2467   17.8649 C.ar      1 UNK         0.0000 
     24 N24        13.5048   18.4607   17.1877 N.pl3     1 UNK         0.0000 
     25 C25        14.6045   18.9364   16.3634 C.3       1 UNK         0.0000 
     26 C26        13.1874   17.1320   17.4268 C.ar      1 UNK         0.0000 
     27 C27        12.0729   17.1061   18.2506 C.ar      1 UNK         0.0000 
     28 N28        12.5316   20.5997   17.8267 N.pl3     1 UNK         0.0000 
     29 C29         9.9957   17.0648   21.1059 C.ar      1 UNK         0.0000 
     30 C30        10.0721   16.5355   22.3965 C.ar      1 UNK         0.0000 
     31 C31         9.4340   15.2238   22.6801 C.ar      1 UNK         0.0000 
     32 C32         8.2102   15.1346   23.3629 C.ar      1 UNK         0.0000 
     33 O33         7.5273   16.2600   23.7457 O.3       1 UNK         0.0000 
     34 C34         7.6728   13.8883   23.6805 C.ar      1 UNK         0.0000 
     35 C35         8.3318   12.7206   23.3060 C.ar      1 UNK         0.0000 
     36 F36         7.7910   11.5174   23.6034 F         1 UNK         0.0000 
     37 C37         9.5437   12.7967   22.6262 C.ar      1 UNK         0.0000 
     38 C38        10.0873   14.0426   22.3106 C.ar      1 UNK         0.0000 
     39 H39        13.1231   20.4968   26.2058 H         1 UNK         0.0000 
     40 H40        12.6160   19.3077   27.3590 H         1 UNK         0.0000 
     41 H41        14.7281   19.5656   28.5218 H         1 UNK         0.0000 
     42 H42        18.8369   18.9328   30.2212 H         1 UNK         0.0000 
     43 H43        18.7258   17.5872   29.0908 H         1 UNK         0.0000 
     44 H44        19.1468   19.2169   28.5133 H         1 UNK         0.0000 
     45 H45        18.2274   17.7917   26.7989 H         1 UNK         0.0000 
     46 H46        17.3964   16.6625   22.5614 H         1 UNK         0.0000 
     47 H47        15.7961   16.5176   23.2766 H         1 UNK         0.0000 
     48 H48        16.4137   18.1091   22.7808 H         1 UNK         0.0000 
     49 H49        14.6805   18.1711   24.4719 H         1 UNK         0.0000 
     50 H50        11.7234   17.2216   26.7987 H         1 UNK         0.0000 
     51 H51        10.4367   18.1144   26.1186 H         1 UNK         0.0000 
     52 H52        10.1586   16.0498   25.1206 H         1 UNK         0.0000 
     53 H53        11.8296   15.8941   24.7030 H         1 UNK         0.0000 
     54 H54        11.6767   19.9540   21.5507 H         1 UNK         0.0000 
     55 H55         9.6725   18.4601   18.8512 H         1 UNK         0.0000 
     56 H56        10.4734   19.8995   19.3724 H         1 UNK         0.0000 
     57 H57        14.2086   19.3309   15.4281 H         1 UNK         0.0000 
     58 H58        15.1498   19.7185   16.8934 H         1 UNK         0.0000 
     59 H59        15.2897   18.1183   16.1377 H         1 UNK         0.0000 
     60 H60        13.7661   16.3286   16.9908 H         1 UNK         0.0000 
     61 H61        11.5095   16.2745   18.6507 H         1 UNK         0.0000 
     62 H62        12.6827   21.0906   16.9582 H         1 UNK         0.0000 
     63 H63         9.4748   16.5185   20.3344 H         1 UNK         0.0000 
     64 H64         6.7081   16.0586   24.2031 H         1 UNK         0.0000 
     65 H65         6.7456   13.8163   24.2265 H         1 UNK         0.0000 
     66 H66        10.0645   11.8897   22.3512 H         1 UNK         0.0000 
     67 H67        11.0370   14.0866   21.7962 H         1 UNK         0.0000 
     68 H68        12.2573   21.1255   18.6477 H         1 UNK         0.0000 
@<TRIPOS>BOND
     1    1    2 2    
     2    2   18 1    
     3    2    3 am   BACKBONE|DICT|INTERRES
     4    3    4 1    
     5    3   15 1    
     6    4    5 1    
     7    4   39 1    
     8    4   40 1    
     9    5   14 ar   
    10    5    6 ar   
    11    6    7 ar   
    12    6   41 1    
    13    7    8 1    
    14    7   10 ar   
    15    8    9 1    
    16    9   42 1    
    17    9   43 1    
    18    9   44 1    
    19   10   11 ar   
    20   10   45 1    
    21   11   12 1    
    22   11   14 ar   
    23   12   13 1    
    24   13   46 1    
    25   13   47 1    
    26   13   48 1    
    27   14   49 1    
    28   15   16 1    
    29   15   50 1    
    30   15   51 1    
    31   16   17 1    
    32   16   52 1    
    33   16   53 1    
    34   17   30 ar   
    35   17   18 ar   
    36   18   19 ar   
    37   19   20 ar   
    38   19   54 1    
    39   20   21 1    
    40   20   29 ar   
    41   21   22 1    
    42   21   55 1    
    43   21   56 1    
    44   22   27 ar   
    45   22   23 ar   
    46   23   24 ar   
    47   23   28 1    
    48   24   25 1    
    49   24   26 ar   
    50   25   57 1    
    51   25   58 1    
    52   25   59 1    
    53   26   27 ar   
    54   26   60 1    
    55   27   61 1    
    56   28   62 1    
    57   28   68 1    
    58   29   30 ar   
    59   29   63 1    
    60   30   31 1    
    61   31   38 ar   
    62   31   32 ar   
    63   32   33 1    
    64   32   34 ar   
    65   33   64 1    
    66   34   35 ar   
    67   34   65 1    
    68   35   36 1    
    69   35   37 ar   
    70   37   38 ar   
    71   37   66 1    
    72   38   67 1    
@<TRIPOS>SUBSTRUCTURE
     1 UNK         1 GROUP             0       ****    0 ROOT    
