@<TRIPOS>MOLECULE
/home/yujie/leadopt/data/result/selection/WDR5/lig_26.sdf:1
61   65    1
SMALL
USER_CHARGES


@<TRIPOS>ATOM
      1 O1         12.4753   20.4269   23.8273 O.2       1 UNK         0.0000 
      2 C2         12.0686   19.2695   23.9595 C.2       1 UNK         0.0000 
      3 N3         12.2590   18.5776   25.1257 N.am      1 UNK         0.0000 
      4 C4         13.1826   19.1141   26.1425 C.3       1 UNK         0.0000 
      5 C5         14.6358   18.6369   26.0607 C.ar      1 UNK         0.0000 
      6 C6         15.4346   18.6572   27.2082 C.ar      1 UNK         0.0000 
      7 C7         16.7470   18.1903   27.1219 C.ar      1 UNK         0.0000 
      8 C8         17.2298   17.7183   25.9024 C.ar      1 UNK         0.0000 
      9 C9         16.3733   17.7189   24.7975 C.ar      1 UNK         0.0000 
     10 C10        16.8341   17.2347   23.4348 C.3       1 UNK         0.0000 
     11 N11        15.0919   18.1633   24.8657 N.ar      1 UNK         0.0000 
     12 C12        11.8636   17.1630   25.3043 C.3       1 UNK         0.0000 
     13 C13        10.5789   16.8015   24.5425 C.3       1 UNK         0.0000 
     14 C14        10.6167   17.3302   23.1191 C.ar      1 UNK         0.0000 
     15 C15        11.2871   18.5411   22.8806 C.ar      1 UNK         0.0000 
     16 C16        11.2494   19.1209   21.6042 C.ar      1 UNK         0.0000 
     17 C17        10.6812   18.4414   20.5287 C.ar      1 UNK         0.0000 
     18 C18        10.7563   19.0313   19.1228 C.3       1 UNK         0.0000 
     19 N19        11.9018   18.5627   18.3392 N.pl3     1 UNK         0.0000 
     20 C20        12.8718   19.3026   17.6859 C.ar      1 UNK         0.0000 
     21 C21        12.9053   20.8134   17.6456 C.3       1 UNK         0.0000 
     22 N22        13.7481   18.5521   17.0551 N.2       1 UNK         0.0000 
     23 C23        13.3504   17.3115   17.2582 C.ar      1 UNK         0.0000 
     24 C24        12.2083   17.2610   18.0353 C.ar      1 UNK         0.0000 
     25 C25        10.0748   17.2041   20.7490 C.ar      1 UNK         0.0000 
     26 C26        10.0301   16.6539   22.0339 C.ar      1 UNK         0.0000 
     27 C27         9.3641   15.3367   22.2163 C.ar      1 UNK         0.0000 
     28 C28         9.9730   14.0936   22.2265 C.ar      1 UNK         0.0000 
     29 N29         8.9681   13.1863   22.4177 N.pl3     1 UNK         0.0000 
     30 C30         9.0695   11.7392   22.5071 C.3       1 UNK         0.0000 
     31 N31         7.7775   13.7742   22.5699 N.2       1 UNK         0.0000 
     32 C32         7.9980   15.0713   22.4478 C.ar      1 UNK         0.0000 
     33 C33         6.8473   16.0577   22.5877 C.3       1 UNK         0.0000 
     34 F34         7.0351   17.1346   21.8267 F         1 UNK         0.0000 
     35 F35         5.6797   15.5236   22.2270 F         1 UNK         0.0000 
     36 F36         6.7333   16.4757   23.8474 F         1 UNK         0.0000 
     37 H37        13.1772   20.2059   26.1559 H         1 UNK         0.0000 
     38 H38        12.7955   18.8168   27.1174 H         1 UNK         0.0000 
     39 H39        15.0503   19.0270   28.1474 H         1 UNK         0.0000 
     40 H40        17.3871   18.2023   27.9916 H         1 UNK         0.0000 
     41 H41        18.2439   17.3634   25.8263 H         1 UNK         0.0000 
     42 H42        17.8106   16.7524   23.4900 H         1 UNK         0.0000 
     43 H43        16.1270   16.5140   23.0254 H         1 UNK         0.0000 
     44 H44        16.9055   18.0709   22.7401 H         1 UNK         0.0000 
     45 H45        12.6382   16.5551   24.8349 H         1 UNK         0.0000 
     46 H46        11.8832   16.8483   26.3474 H         1 UNK         0.0000 
     47 H47         9.7149   17.2081   25.0692 H         1 UNK         0.0000 
     48 H48        10.4554   15.7189   24.5637 H         1 UNK         0.0000 
     49 H49        11.6884   20.0907   21.4234 H         1 UNK         0.0000 
     50 H50        10.7916   20.1188   19.1836 H         1 UNK         0.0000 
     51 H51         9.8476   18.7993   18.5680 H         1 UNK         0.0000 
     52 H52        13.6708   21.1971   16.9723 H         1 UNK         0.0000 
     53 H53        13.1139   21.2297   18.6249 H         1 UNK         0.0000 
     54 H54        11.9579   21.2332   17.3084 H         1 UNK         0.0000 
     55 H55        13.8806   16.4644   16.8489 H         1 UNK         0.0000 
     56 H56        11.6050   16.4393   18.3899 H         1 UNK         0.0000 
     57 H57         9.6425   16.6693   19.9161 H         1 UNK         0.0000 
     58 H58        10.9980   13.7739   22.1000 H         1 UNK         0.0000 
     59 H59        10.0742   11.4129   22.2332 H         1 UNK         0.0000 
     60 H60         8.8672   11.4173   23.5283 H         1 UNK         0.0000 
     61 H61         8.3524   11.2797   21.8274 H         1 UNK         0.0000 
@<TRIPOS>BOND
     1    1    2 2    
     2    2   15 1    
     3    2    3 am   BACKBONE|DICT|INTERRES
     4    3    4 1    
     5    3   12 1    
     6    4    5 1    
     7    4   37 1    
     8    4   38 1    
     9    5   11 ar   
    10    5    6 ar   
    11    6    7 ar   
    12    6   39 1    
    13    7    8 ar   
    14    7   40 1    
    15    8    9 ar   
    16    8   41 1    
    17    9   10 1    
    18    9   11 ar   
    19   10   42 1    
    20   10   43 1    
    21   10   44 1    
    22   12   13 1    
    23   12   45 1    
    24   12   46 1    
    25   13   14 1    
    26   13   47 1    
    27   13   48 1    
    28   14   26 ar   
    29   14   15 ar   
    30   15   16 ar   
    31   16   17 ar   
    32   16   49 1    
    33   17   18 1    
    34   17   25 ar   
    35   18   19 1    
    36   18   50 1    
    37   18   51 1    
    38   19   24 ar   
    39   19   20 ar   
    40   20   21 1    
    41   20   22 ar   
    42   21   52 1    
    43   21   53 1    
    44   21   54 1    
    45   22   23 ar   
    46   23   24 ar   
    47   23   55 1    
    48   24   56 1    
    49   25   26 ar   
    50   25   57 1    
    51   26   27 1    
    52   27   32 ar   
    53   27   28 ar   
    54   28   29 ar   
    55   28   58 1    
    56   29   30 1    
    57   29   31 ar   
    58   30   59 1    
    59   30   60 1    
    60   30   61 1    
    61   31   32 ar   
    62   32   33 1    
    63   33   34 1    
    64   33   35 1    
    65   33   36 1    
@<TRIPOS>SUBSTRUCTURE
     1 UNK         1 GROUP             0       ****    0 ROOT    
