@<TRIPOS>MOLECULE
/home/yujie/leadopt/data/result/selection/WDR5/lig_4.sdf:1
70   74    1
SMALL
USER_CHARGES


@<TRIPOS>ATOM
      1 O1         12.8492   20.1183   23.6423 O.2       1 UNK         0.0000 
      2 C2         12.1478   19.1679   23.9951 C.2       1 UNK         0.0000 
      3 N3         12.1748   18.7170   25.2847 N.am      1 UNK         0.0000 
      4 C4         13.0271   19.3999   26.2785 C.3       1 UNK         0.0000 
      5 C5         14.4733   18.9039   26.3953 C.ar      1 UNK         0.0000 
      6 C6         15.1562   18.2982   25.3303 C.ar      1 UNK         0.0000 
      7 C7         16.4932   17.8929   25.4681 C.ar      1 UNK         0.0000 
      8 O8         17.2506   17.3175   24.4660 O.3       1 UNK         0.0000 
      9 C9         16.6888   17.1658   23.1677 C.3       1 UNK         0.0000 
     10 C10        17.1330   18.0886   26.6911 C.ar      1 UNK         0.0000 
     11 C11        16.4691   18.6847   27.7725 C.ar      1 UNK         0.0000 
     12 O12        17.0447   18.9303   29.0038 O.3       1 UNK         0.0000 
     13 C13        18.4248   18.6337   29.1917 C.3       1 UNK         0.0000 
     14 C14        15.1403   19.0764   27.6108 C.ar      1 UNK         0.0000 
     15 C15        11.3120   17.6296   25.7856 C.3       1 UNK         0.0000 
     16 C16        10.9469   16.5710   24.7264 C.3       1 UNK         0.0000 
     17 C17        10.7329   17.1392   23.3314 C.ar      1 UNK         0.0000 
     18 C18        11.2742   18.3992   23.0269 C.ar      1 UNK         0.0000 
     19 C19        11.1664   18.9153   21.7286 C.ar      1 UNK         0.0000 
     20 C20        10.5495   18.1824   20.7198 C.ar      1 UNK         0.0000 
     21 C21        10.5488   18.7078   19.2889 C.3       1 UNK         0.0000 
     22 N22        11.7213   18.3215   18.5052 N.pl3     1 UNK         0.0000 
     23 C23        12.6034   19.1693   17.8512 C.ar      1 UNK         0.0000 
     24 N24        13.5489   18.3989   17.1936 N.pl3     1 UNK         0.0000 
     25 C25        14.6684   18.8957   16.4076 C.3       1 UNK         0.0000 
     26 C26        13.2463   17.0654   17.4266 C.ar      1 UNK         0.0000 
     27 C27        12.1140   17.0196   18.2268 C.ar      1 UNK         0.0000 
     28 N28        12.5331   20.5215   17.8267 N.pl3     1 UNK         0.0000 
     29 C29         9.9923   16.9427   21.0251 C.ar      1 UNK         0.0000 
     30 C30        10.0741   16.4098   22.3169 C.ar      1 UNK         0.0000 
     31 C31         9.5741   15.0279   22.5620 C.ar      1 UNK         0.0000 
     32 C32         8.2024   14.7092   22.6260 C.ar      1 UNK         0.0000 
     33 C33         7.0845   15.7360   22.4915 C.3       1 UNK         0.0000 
     34 N34         7.8338   13.4325   22.8756 N.pl3     1 UNK         0.0000 
     35 C35         8.7068   12.4238   23.0744 C.ar      1 UNK         0.0000 
     36 C36        10.0729   12.6908   23.0266 C.ar      1 UNK         0.0000 
     37 C37        10.5030   13.9920   22.7568 C.ar      1 UNK         0.0000 
     38 H38        13.0596   20.4736   26.0796 H         1 UNK         0.0000 
     39 H39        12.5537   19.3106   27.2571 H         1 UNK         0.0000 
     40 H40        14.6550   18.1638   24.3862 H         1 UNK         0.0000 
     41 H41        17.4251   16.7073   22.5084 H         1 UNK         0.0000 
     42 H42        15.8137   16.5166   23.1861 H         1 UNK         0.0000 
     43 H43        16.4143   18.1286   22.7338 H         1 UNK         0.0000 
     44 H44        18.1629   17.7777   26.7744 H         1 UNK         0.0000 
     45 H45        18.7189   18.9139   30.2030 H         1 UNK         0.0000 
     46 H46        18.6276   17.5681   29.0740 H         1 UNK         0.0000 
     47 H47        19.0525   19.1968   28.4990 H         1 UNK         0.0000 
     48 H48        14.6339   19.5439   28.4418 H         1 UNK         0.0000 
     49 H49        11.6270   17.2226   26.7478 H         1 UNK         0.0000 
     50 H50        10.3610   18.1092   26.0241 H         1 UNK         0.0000 
     51 H51        10.0709   16.0149   25.0620 H         1 UNK         0.0000 
     52 H52        11.7545   15.8379   24.6920 H         1 UNK         0.0000 
     53 H53        11.6120   19.8680   21.4747 H         1 UNK         0.0000 
     54 H54         9.6729   18.3620   18.7493 H         1 UNK         0.0000 
     55 H55        10.4730   19.7953   19.3034 H         1 UNK         0.0000 
     56 H56        15.1261   19.7440   16.9162 H         1 UNK         0.0000 
     57 H57        15.4201   18.1184   16.2791 H         1 UNK         0.0000 
     58 H58        14.3075   19.2038   15.4260 H         1 UNK         0.0000 
     59 H59        13.8523   16.2712   17.0101 H         1 UNK         0.0000 
     60 H60        11.5610   16.1782   18.6230 H         1 UNK         0.0000 
     61 H61        12.7087   21.0265   16.9695 H         1 UNK         0.0000 
     62 H62         9.5436   16.3650   20.2326 H         1 UNK         0.0000 
     63 H63         7.3898   16.5997   21.8988 H         1 UNK         0.0000 
     64 H64         6.1986   15.3138   22.0110 H         1 UNK         0.0000 
     65 H65         6.7911   16.1000   23.4782 H         1 UNK         0.0000 
     66 H66         8.2937   11.4437   23.2725 H         1 UNK         0.0000 
     67 H67        10.7932   11.8939   23.1760 H         1 UNK         0.0000 
     68 H68        11.5639   14.1908   22.7009 H         1 UNK         0.0000 
     69 H69        12.2429   21.0360   18.6490 H         1 UNK         0.0000 
     70 H70         6.8471   13.2252   22.9270 H         1 UNK         0.0000 
@<TRIPOS>BOND
     1    1    2 2    
     2    2   18 1    
     3    2    3 am   BACKBONE|DICT|INTERRES
     4    3    4 1    
     5    3   15 1    
     6    4    5 1    
     7    4   38 1    
     8    4   39 1    
     9    5   14 ar   
    10    5    6 ar   
    11    6    7 ar   
    12    6   40 1    
    13    7    8 1    
    14    7   10 ar   
    15    8    9 1    
    16    9   41 1    
    17    9   42 1    
    18    9   43 1    
    19   10   11 ar   
    20   10   44 1    
    21   11   12 1    
    22   11   14 ar   
    23   12   13 1    
    24   13   45 1    
    25   13   46 1    
    26   13   47 1    
    27   14   48 1    
    28   15   16 1    
    29   15   49 1    
    30   15   50 1    
    31   16   17 1    
    32   16   51 1    
    33   16   52 1    
    34   17   30 ar   
    35   17   18 ar   
    36   18   19 ar   
    37   19   20 ar   
    38   19   53 1    
    39   20   21 1    
    40   20   29 ar   
    41   21   22 1    
    42   21   54 1    
    43   21   55 1    
    44   22   27 ar   
    45   22   23 ar   
    46   23   24 ar   
    47   23   28 1    
    48   24   25 1    
    49   24   26 ar   
    50   25   56 1    
    51   25   57 1    
    52   25   58 1    
    53   26   27 ar   
    54   26   59 1    
    55   27   60 1    
    56   28   61 1    
    57   28   69 1    
    58   29   30 ar   
    59   29   62 1    
    60   30   31 1    
    61   31   37 ar   
    62   31   32 ar   
    63   32   33 1    
    64   32   34 ar   
    65   33   63 1    
    66   33   64 1    
    67   33   65 1    
    68   34   35 ar   
    69   34   70 1    
    70   35   36 ar   
    71   35   66 1    
    72   36   37 ar   
    73   36   67 1    
    74   37   68 1    
@<TRIPOS>SUBSTRUCTURE
     1 UNK         1 GROUP             0       ****    0 ROOT    
