@<TRIPOS>MOLECULE
/home/yujie/leadopt/data/result/selection/WDR5/lig_13.sdf:1
70   74    1
SMALL
USER_CHARGES


@<TRIPOS>ATOM
      1 O1         12.6839   20.3621   23.8158 O.2       1 UNK         0.0000 
      2 C2         12.0731   19.3138   24.0358 C.2       1 UNK         0.0000 
      3 N3         12.0995   18.7540   25.2817 N.am      1 UNK         0.0000 
      4 C4         12.9167   19.3774   26.3436 C.3       1 UNK         0.0000 
      5 C5         14.3755   18.9185   26.4301 C.ar      1 UNK         0.0000 
      6 C6         15.1038   18.5144   25.3026 C.ar      1 UNK         0.0000 
      7 C7         16.4399   18.1018   25.4166 C.ar      1 UNK         0.0000 
      8 O8         17.2271   17.6797   24.3621 O.3       1 UNK         0.0000 
      9 C9         16.6539   17.5566   23.0646 C.3       1 UNK         0.0000 
     10 C10        17.0450   18.1172   26.6726 C.ar      1 UNK         0.0000 
     11 C11        16.3381   18.5224   27.8137 C.ar      1 UNK         0.0000 
     12 O12        16.8693   18.5664   29.0872 O.3       1 UNK         0.0000 
     13 C13        18.2395   18.2271   29.2784 C.3       1 UNK         0.0000 
     14 C14        15.0057   18.9123   27.6765 C.ar      1 UNK         0.0000 
     15 C15        11.2711   17.6017   25.6865 C.3       1 UNK         0.0000 
     16 C16        10.8674   16.6488   24.5449 C.3       1 UNK         0.0000 
     17 C17        10.6725   17.3335   23.2023 C.ar      1 UNK         0.0000 
     18 C18        11.2733   18.5826   22.9744 C.ar      1 UNK         0.0000 
     19 C19        11.2056   19.1639   21.6974 C.ar      1 UNK         0.0000 
     20 C20        10.5461   18.5185   20.6508 C.ar      1 UNK         0.0000 
     21 C21        10.5752   19.0915   19.2384 C.3       1 UNK         0.0000 
     22 N22        11.7290   18.6403   18.4584 N.pl3     1 UNK         0.0000 
     23 C23        12.6825   19.4306   17.8328 C.ar      1 UNK         0.0000 
     24 N24        13.5937   18.5991   17.1994 N.pl3     1 UNK         0.0000 
     25 C25        14.7657   19.0131   16.4442 C.3       1 UNK         0.0000 
     26 C26        13.2024   17.2880   17.4259 C.ar      1 UNK         0.0000 
     27 C27        12.0429   17.3162   18.1847 C.ar      1 UNK         0.0000 
     28 N28        12.7054   20.7826   17.8265 N.pl3     1 UNK         0.0000 
     29 C29         9.8972   17.3132   20.8950 C.ar      1 UNK         0.0000 
     30 C30         9.9598   16.7210   22.1547 C.ar      1 UNK         0.0000 
     31 C31         9.3197   15.3879   22.3056 C.ar      1 UNK         0.0000 
     32 C32         9.8532   14.1141   22.2266 C.ar      1 UNK         0.0000 
     33 C33         8.7987   13.2196   22.4322 C.ar      1 UNK         0.0000 
     34 C34         8.8243   11.7089   22.4477 C.3       1 UNK         0.0000 
     35 N35         7.6727   13.8662   22.6285 N.2       1 UNK         0.0000 
     36 N36         7.9864   15.1684   22.5679 N.pl3     1 UNK         0.0000 
     37 C37         6.9195   16.1457   22.7192 C.3       1 UNK         0.0000 
     38 H38        12.9164   20.4643   26.2438 H         1 UNK         0.0000 
     39 H39        12.4348   19.1866   27.3040 H         1 UNK         0.0000 
     40 H40        14.6332   18.5210   24.3329 H         1 UNK         0.0000 
     41 H41        17.4081   17.1875   22.3708 H         1 UNK         0.0000 
     42 H42        15.8280   16.8433   23.0634 H         1 UNK         0.0000 
     43 H43        16.3034   18.5175   22.6865 H         1 UNK         0.0000 
     44 H44        18.0768   17.8079   26.7371 H         1 UNK         0.0000 
     45 H45        18.4905   18.3354   30.3345 H         1 UNK         0.0000 
     46 H46        18.4401   17.1913   28.9953 H         1 UNK         0.0000 
     47 H47        18.8997   18.8897   28.7151 H         1 UNK         0.0000 
     48 H48        14.4644   19.2259   28.5573 H         1 UNK         0.0000 
     49 H49        11.6028   17.1083   26.6011 H         1 UNK         0.0000 
     50 H50        10.3253   18.0540   25.9924 H         1 UNK         0.0000 
     51 H51         9.9800   16.0844   24.8396 H         1 UNK         0.0000 
     52 H52        11.6512   15.8961   24.4409 H         1 UNK         0.0000 
     53 H53        11.6730   20.1166   21.4950 H         1 UNK         0.0000 
     54 H54         9.6729   18.8216   18.6884 H         1 UNK         0.0000 
     55 H55        10.5671   20.1793   19.2810 H         1 UNK         0.0000 
     56 H56        14.4540   19.3557   15.4562 H         1 UNK         0.0000 
     57 H57        15.2726   19.8199   16.9747 H         1 UNK         0.0000 
     58 H58        15.4511   18.1745   16.3230 H         1 UNK         0.0000 
     59 H59        13.7672   16.4566   17.0261 H         1 UNK         0.0000 
     60 H60        11.4199   16.5148   18.5571 H         1 UNK         0.0000 
     61 H61        12.9289   21.2873   16.9813 H         1 UNK         0.0000 
     62 H62         9.3796   16.8153   20.0869 H         1 UNK         0.0000 
     63 H63        10.8830   13.8500   22.0331 H         1 UNK         0.0000 
     64 H64         9.7720   11.3129   22.0821 H         1 UNK         0.0000 
     65 H65         8.0373   11.2829   21.8257 H         1 UNK         0.0000 
     66 H66         8.6912   11.3161   23.4561 H         1 UNK         0.0000 
     67 H67         7.3371   17.1358   22.9053 H         1 UNK         0.0000 
     68 H68         6.3239   16.1722   21.8073 H         1 UNK         0.0000 
     69 H69         6.2818   15.8688   23.5598 H         1 UNK         0.0000 
     70 H70        12.4154   21.3003   18.6456 H         1 UNK         0.0000 
@<TRIPOS>BOND
     1    1    2 2    
     2    2   18 1    
     3    2    3 am   BACKBONE|DICT|INTERRES
     4    3    4 1    
     5    3   15 1    
     6    4    5 1    
     7    4   38 1    
     8    4   39 1    
     9    5   14 ar   
    10    5    6 ar   
    11    6    7 ar   
    12    6   40 1    
    13    7    8 1    
    14    7   10 ar   
    15    8    9 1    
    16    9   41 1    
    17    9   42 1    
    18    9   43 1    
    19   10   11 ar   
    20   10   44 1    
    21   11   12 1    
    22   11   14 ar   
    23   12   13 1    
    24   13   45 1    
    25   13   46 1    
    26   13   47 1    
    27   14   48 1    
    28   15   16 1    
    29   15   49 1    
    30   15   50 1    
    31   16   17 1    
    32   16   51 1    
    33   16   52 1    
    34   17   30 ar   
    35   17   18 ar   
    36   18   19 ar   
    37   19   20 ar   
    38   19   53 1    
    39   20   21 1    
    40   20   29 ar   
    41   21   22 1    
    42   21   54 1    
    43   21   55 1    
    44   22   27 ar   
    45   22   23 ar   
    46   23   24 ar   
    47   23   28 1    
    48   24   25 1    
    49   24   26 ar   
    50   25   56 1    
    51   25   57 1    
    52   25   58 1    
    53   26   27 ar   
    54   26   59 1    
    55   27   60 1    
    56   28   61 1    
    57   28   70 1    
    58   29   30 ar   
    59   29   62 1    
    60   30   31 1    
    61   31   36 ar   
    62   31   32 ar   
    63   32   33 ar   
    64   32   63 1    
    65   33   34 1    
    66   33   35 ar   
    67   34   64 1    
    68   34   65 1    
    69   34   66 1    
    70   35   36 ar   
    71   36   37 1    
    72   37   67 1    
    73   37   68 1    
    74   37   69 1    
@<TRIPOS>SUBSTRUCTURE
     1 UNK         1 GROUP             0       ****    0 ROOT    
