/home/yujie/leadopt/data/result/selection/WDR5/lig_23.sdf:1
                    3D
 Schrodinger Suite 2020-3.
 71 76  0  0  1  0            999 V2000
   12.5334   20.2361   23.8268 O   0  0  0  0  0  0
   12.0775   19.1073   24.0344 C   0  0  0  0  0  0
   12.2734   18.4684   25.2287 N   0  0  0  0  0  0
   13.1107   19.1017   26.2652 C   0  0  0  0  0  0
   14.5822   18.6832   26.3301 C   0  0  0  0  0  0
   15.2713   18.1599   25.2279 C   0  0  0  0  0  0
   16.6260   17.8051   25.3350 C   0  0  0  0  0  0
   17.3974   17.3185   24.3000 O   0  0  0  0  0  0
   16.8189   17.1753   23.0130 C   0  0  0  0  0  0
   17.2754   17.9712   26.5568 C   0  0  0  0  0  0
   16.6075   18.5000   27.6685 C   0  0  0  0  0  0
   17.1950   18.7202   28.8983 O   0  0  0  0  0  0
   18.5898   18.4739   29.0493 C   0  0  0  0  0  0
   15.2607   18.8389   27.5420 C   0  0  0  0  0  0
   11.9042   17.0550   25.4612 C   0  0  0  0  0  0
   10.6497   16.6054   24.6914 C   0  0  0  0  0  0
   10.6190   17.1420   23.2721 C   0  0  0  0  0  0
   11.2731   18.3552   22.9953 C   0  0  0  0  0  0
   11.1942   18.9183   21.7120 C   0  0  0  0  0  0
   10.5501   18.2425   20.6793 C   0  0  0  0  0  0
   10.5796   18.7897   19.2607 C   0  0  0  0  0  0
   11.7250   18.3099   18.4873 N   0  0  0  0  0  0
   12.7036   19.0322   17.8265 C   0  0  0  0  0  0
   12.7529   20.5514   17.7362 C   0  0  0  0  0  0
   14.0786   21.2689   17.7377 C   0  0  0  0  0  0
   13.2729   21.1816   16.4656 C   0  0  0  0  0  0
   13.5793   18.2519   17.2227 N   0  0  0  0  0  0
   13.1719   17.0186   17.4384 C   0  0  0  0  0  0
   12.0423   16.9978   18.2324 C   0  0  0  0  0  0
    9.9305   17.0275   20.9427 C   0  0  0  0  0  0
    9.9671   16.4691   22.2220 C   0  0  0  0  0  0
    9.3028   15.1509   22.4025 C   0  0  0  0  0  0
    9.9046   13.9044   22.3657 C   0  0  0  0  0  0
    8.8942   12.9979   22.5127 N   0  0  0  0  0  0
    8.9904   11.5503   22.5270 C   0  0  0  0  0  0
    7.7029   13.5843   22.6872 N   0  0  0  0  0  0
    7.9378   14.8822   22.6252 C   0  0  0  0  0  0
    6.7895   15.8645   22.7727 C   0  0  0  0  0  0
    5.6707   15.3819   22.2425 F   0  0  0  0  0  0
    6.5514   16.1364   24.0563 F   0  0  0  0  0  0
    7.0429   17.0178   22.1576 F   0  0  0  0  0  0
   13.0709   20.1908   26.1929 H   0  0  0  0  0  0
   12.6591   18.8669   27.2296 H   0  0  0  0  0  0
   14.7541   18.0504   24.2890 H   0  0  0  0  0  0
   17.5693   16.7982   22.3175 H   0  0  0  0  0  0
   15.9957   16.4629   23.0287 H   0  0  0  0  0  0
   16.4612   18.1317   22.6281 H   0  0  0  0  0  0
   18.3160   17.6992   26.6154 H   0  0  0  0  0  0
   18.8948   18.7354   30.0622 H   0  0  0  0  0  0
   18.8285   17.4207   28.8937 H   0  0  0  0  0  0
   19.1816   19.0796   28.3603 H   0  0  0  0  0  0
   14.7470   19.2481   28.3993 H   0  0  0  0  0  0
   12.7100   16.4608   25.0242 H   0  0  0  0  0  0
   11.9269   16.7708   26.5136 H   0  0  0  0  0  0
    9.7609   16.9418   25.2254 H   0  0  0  0  0  0
   10.5972   15.5164   24.7033 H   0  0  0  0  0  0
   11.6732   19.8625   21.4857 H   0  0  0  0  0  0
   10.5734   19.8753   19.2993 H   0  0  0  0  0  0
    9.6730   18.5181   18.7224 H   0  0  0  0  0  0
   11.9274   21.0717   18.2168 H   0  0  0  0  0  0
   14.9989   20.6880   17.8264 H   0  0  0  0  0  0
   14.1487   22.2388   18.2259 H   0  0  0  0  0  0
   12.8718   22.1154   16.0855 H   0  0  0  0  0  0
   13.5975   20.5186   15.6632 H   0  0  0  0  0  0
   13.6910   16.1599   17.0407 H   0  0  0  0  0  0
   11.4456   16.1859   18.6246 H   0  0  0  0  0  0
    9.4285   16.5145   20.1380 H   0  0  0  0  0  0
   10.9276   13.5843   22.2264 H   0  0  0  0  0  0
    9.9944   11.2412   22.2293 H   0  0  0  0  0  0
    8.7917   11.1809   23.5333 H   0  0  0  0  0  0
    8.2681   11.1274   21.8266 H   0  0  0  0  0  0
  1  2  2  0  0  0
  2 18  1  0  0  0
  2  3  1  0  0  0
  3  4  1  0  0  0
  3 15  1  0  0  0
  4  5  1  0  0  0
  4 42  1  0  0  0
  4 43  1  0  0  0
  5 14  1  0  0  0
  5  6  2  0  0  0
  6  7  1  0  0  0
  6 44  1  0  0  0
  7  8  1  0  0  0
  7 10  2  0  0  0
  8  9  1  0  0  0
  9 45  1  0  0  0
  9 46  1  0  0  0
  9 47  1  0  0  0
 10 11  1  0  0  0
 10 48  1  0  0  0
 11 12  1  0  0  0
 11 14  2  0  0  0
 12 13  1  0  0  0
 13 49  1  0  0  0
 13 50  1  0  0  0
 13 51  1  0  0  0
 14 52  1  0  0  0
 15 16  1  0  0  0
 15 53  1  0  0  0
 15 54  1  0  0  0
 16 17  1  0  0  0
 16 55  1  0  0  0
 16 56  1  0  0  0
 17 31  1  0  0  0
 17 18  2  0  0  0
 18 19  1  0  0  0
 19 20  2  0  0  0
 19 57  1  0  0  0
 20 21  1  0  0  0
 20 30  1  0  0  0
 21 22  1  0  0  0
 21 58  1  0  0  0
 21 59  1  0  0  0
 22 29  1  0  0  0
 22 23  1  0  0  0
 23 24  1  0  0  0
 23 27  2  0  0  0
 24 26  1  0  0  0
 24 25  1  0  0  0
 24 60  1  0  0  0
 25 26  1  0  0  0
 25 61  1  0  0  0
 25 62  1  0  0  0
 26 63  1  0  0  0
 26 64  1  0  0  0
 27 28  1  0  0  0
 28 29  2  0  0  0
 28 65  1  0  0  0
 29 66  1  0  0  0
 30 31  2  0  0  0
 30 67  1  0  0  0
 31 32  1  0  0  0
 32 37  1  0  0  0
 32 33  2  0  0  0
 33 34  1  0  0  0
 33 68  1  0  0  0
 34 35  1  0  0  0
 34 36  1  0  0  0
 35 69  1  0  0  0
 35 70  1  0  0  0
 35 71  1  0  0  0
 36 37  2  0  0  0
 37 38  1  0  0  0
 38 39  1  0  0  0
 38 40  1  0  0  0
 38 41  1  0  0  0
M  END
> <s_m_source_file>
/home/yujie/leadopt/data/result/selection/WDR5/lig_23.sdf

> <i_m_source_file_index>
1

> <i_lp_mmshare_version>
51139

> <i_f3d_flags>
0

> <s_epik_input>
W0NIM11PYyhbY0hdMSlbY0hdYyhPW0NIM10pW2NIXWMxW0NIMl1OKFtDSDJdW0NIMl0yKUMoPU8pYyhjMjMpW2NIXWMoW0NIMl1uNGMoW0NIXTVbQ0gyXVtDSDJdNSluW2NIXVtjSF00KVtjSF1jMy1jNltjSF1uKFtDSDNdKW5jNkMoRikoRilG

> <s_epik_cmdline>
J2VwaWtfcHl0aG9uJywgJy1waHQnLCAnMi4wJywgJy1waCcsICc3LjAnLCAnLXRuJywgJzgnLCAnLW1hJywgJzIwMCcsICctaW1hZScsICc8aW5maWxlLm1hZT4nLCAnLW9tYWUnLCAnPG91dGZpbGUubWFlPic=

> <r_lp_tautomer_probability>
1

> <r_epik_Ionization_Penalty>
  0.7374

> <r_epik_Ionization_Penalty_Charging>
  0.7374

> <r_epik_Ionization_Penalty_Neutral>
  0.0000

> <r_epik_State_Penalty>
  0.7633

> <r_epik_Charging_Adjusted_Penalty>
1.5007

> <i_epik_Tot_Q>
0

> <i_epik_Tot_abs_Q>
0

> <s_lp_Force_Field>
OPLS3e

> <r_lp_Energy>
63.7518

> <b_lp_Chiralities_Consistent>
1

> <s_lp_Variant>
/home/yujie/leadopt/data/result/selection/WDR5/lig_23.sdf:1-2

> <s_i_glide_gridfile>
glide-grid_WDR5

> <i_i_glide_lignum>
2

> <i_i_glide_rotatable_bonds>
9

> <r_i_docking_score>
-11.395149193866

> <r_i_glide_ligand_efficiency>
-0.277930468143074

> <r_i_glide_ligand_efficiency_sa>
-0.958364630692271

> <r_i_glide_ligand_efficiency_ln>
-2.41751882279662

> <r_i_glide_gscore>
-12.158415193866

> <r_i_glide_lipo>
-4.94656685704946

> <r_i_glide_hbond>
-0.32

> <r_i_glide_metal>
-0

> <r_i_glide_rewards>
-2.50279708810057

> <r_i_glide_evdw>
-65.6403274536133

> <r_i_glide_ecoul>
-9.25940322875977

> <r_i_glide_erotb>
0.305124049643107

> <r_i_glide_esite>
-0.0232484413644694

> <r_i_glide_emodel>
-121.834113766736

> <r_i_glide_energy>
-74.899730682373

> <r_i_glide_einternal>
8.50483798980713

> <i_i_glide_confnum>
177

> <i_i_glide_posenum>
19

> <r_i_glide_eff_state_penalty>
0.763266

$$$$
