@<TRIPOS>MOLECULE
/home/yujie/leadopt/data/result/selection/WDR5/lig_27.sdf:1
61   65    1
SMALL
USER_CHARGES


@<TRIPOS>ATOM
      1 O1         12.4718   20.4263   23.8261 O.2       1 UNK         0.0000 
      2 C2         11.9968   19.2996   23.9966 C.2       1 UNK         0.0000 
      3 N3         12.0832   18.6736   25.2129 N.am      1 UNK         0.0000 
      4 C4         12.8852   19.2888   26.2881 C.3       1 UNK         0.0000 
      5 C5         14.3633   18.8974   26.3591 C.ar      1 UNK         0.0000 
      6 C6         15.0731   19.0952   27.5473 C.ar      1 UNK         0.0000 
      7 C7         16.4121   18.6987   27.6077 C.ar      1 UNK         0.0000 
      8 C8         17.2245   18.9301   28.8664 C.3       1 UNK         0.0000 
      9 C9         17.0019   18.1147   26.4831 C.ar      1 UNK         0.0000 
     10 C10        16.2274   17.9411   25.3354 C.ar      1 UNK         0.0000 
     11 N11        14.9264   18.3178   25.2626 N.ar      1 UNK         0.0000 
     12 C12        11.7021   17.2606   25.4205 C.3       1 UNK         0.0000 
     13 C13        10.4993   16.8207   24.5704 C.3       1 UNK         0.0000 
     14 C14        10.5918   17.3288   23.1426 C.ar      1 UNK         0.0000 
     15 C15        11.2599   18.5431   22.9065 C.ar      1 UNK         0.0000 
     16 C16        11.2529   19.1032   21.6203 C.ar      1 UNK         0.0000 
     17 C17        10.6994   18.4146   20.5413 C.ar      1 UNK         0.0000 
     18 C18        10.7762   19.0067   19.1354 C.3       1 UNK         0.0000 
     19 N19        11.9218   18.5458   18.3511 N.pl3     1 UNK         0.0000 
     20 C20        12.8723   19.2942   17.6789 C.ar      1 UNK         0.0000 
     21 C21        12.8919   20.8060   17.6420 C.3       1 UNK         0.0000 
     22 N22        13.7451   18.5510   17.0326 N.2       1 UNK         0.0000 
     23 C23        13.3726   17.3061   17.2606 C.ar      1 UNK         0.0000 
     24 C24        12.2440   17.2437   18.0574 C.ar      1 UNK         0.0000 
     25 C25        10.0960   17.1758   20.7624 C.ar      1 UNK         0.0000 
     26 C26        10.0360   16.6365   22.0515 C.ar      1 UNK         0.0000 
     27 C27         9.3674   15.3166   22.2266 C.ar      1 UNK         0.0000 
     28 C28         9.9685   14.0688   22.2267 C.ar      1 UNK         0.0000 
     29 N29         8.9618   13.1667   22.4172 N.pl3     1 UNK         0.0000 
     30 C30         9.0661   11.7191   22.5018 C.3       1 UNK         0.0000 
     31 N31         7.7726   13.7562   22.5681 N.2       1 UNK         0.0000 
     32 C32         7.9973   15.0540   22.4516 C.ar      1 UNK         0.0000 
     33 C33         6.8474   16.0433   22.5885 C.3       1 UNK         0.0000 
     34 F34         6.7299   16.4588   23.8502 F         1 UNK         0.0000 
     35 F35         7.0394   17.1196   21.8290 F         1 UNK         0.0000 
     36 F36         5.6763   15.5135   22.2269 F         1 UNK         0.0000 
     37 H37        12.8177   20.3773   26.2600 H         1 UNK         0.0000 
     38 H38        12.4296   19.0064   27.2381 H         1 UNK         0.0000 
     39 H39        14.5959   19.5509   28.4028 H         1 UNK         0.0000 
     40 H40        18.2766   19.0910   28.6258 H         1 UNK         0.0000 
     41 H41        16.8850   19.8257   29.3892 H         1 UNK         0.0000 
     42 H42        17.1428   18.0769   29.5415 H         1 UNK         0.0000 
     43 H43        18.0379   17.8092   26.4956 H         1 UNK         0.0000 
     44 H44        16.6488   17.4946   24.4470 H         1 UNK         0.0000 
     45 H45        12.5300   16.6610   25.0365 H         1 UNK         0.0000 
     46 H46        11.6548   16.9839   26.4739 H         1 UNK         0.0000 
     47 H47         9.5816   17.1900   25.0291 H         1 UNK         0.0000 
     48 H48        10.4259   15.7337   24.6033 H         1 UNK         0.0000 
     49 H49        11.6776   20.0776   21.4362 H         1 UNK         0.0000 
     50 H50        10.8081   20.0958   19.2026 H         1 UNK         0.0000 
     51 H51         9.8703   18.7745   18.5767 H         1 UNK         0.0000 
     52 H52        13.6731   21.1936   16.9828 H         1 UNK         0.0000 
     53 H53        13.0761   21.2225   18.6263 H         1 UNK         0.0000 
     54 H54        11.9470   21.2198   17.2837 H         1 UNK         0.0000 
     55 H55        13.9045   16.4606   16.8493 H         1 UNK         0.0000 
     56 H56        11.6623   16.4163   18.4332 H         1 UNK         0.0000 
     57 H57         9.6733   16.6318   19.9301 H         1 UNK         0.0000 
     58 H58        10.9923   13.7387   22.1020 H         1 UNK         0.0000 
     59 H59        10.0725   11.3988   22.2286 H         1 UNK         0.0000 
     60 H60         8.8615   11.3971   23.5242 H         1 UNK         0.0000 
     61 H61         8.3474   11.2591   21.8242 H         1 UNK         0.0000 
@<TRIPOS>BOND
     1    1    2 2    
     2    2   15 1    
     3    2    3 am   BACKBONE|DICT|INTERRES
     4    3    4 1    
     5    3   12 1    
     6    4    5 1    
     7    4   37 1    
     8    4   38 1    
     9    5   11 ar   
    10    5    6 ar   
    11    6    7 ar   
    12    6   39 1    
    13    7    8 1    
    14    7    9 ar   
    15    8   40 1    
    16    8   41 1    
    17    8   42 1    
    18    9   10 ar   
    19    9   43 1    
    20   10   11 ar   
    21   10   44 1    
    22   12   13 1    
    23   12   45 1    
    24   12   46 1    
    25   13   14 1    
    26   13   47 1    
    27   13   48 1    
    28   14   26 ar   
    29   14   15 ar   
    30   15   16 ar   
    31   16   17 ar   
    32   16   49 1    
    33   17   18 1    
    34   17   25 ar   
    35   18   19 1    
    36   18   50 1    
    37   18   51 1    
    38   19   24 ar   
    39   19   20 ar   
    40   20   21 1    
    41   20   22 ar   
    42   21   52 1    
    43   21   53 1    
    44   21   54 1    
    45   22   23 ar   
    46   23   24 ar   
    47   23   55 1    
    48   24   56 1    
    49   25   26 ar   
    50   25   57 1    
    51   26   27 1    
    52   27   32 ar   
    53   27   28 ar   
    54   28   29 ar   
    55   28   58 1    
    56   29   30 1    
    57   29   31 ar   
    58   30   59 1    
    59   30   60 1    
    60   30   61 1    
    61   31   32 ar   
    62   32   33 1    
    63   33   34 1    
    64   33   35 1    
    65   33   36 1    
@<TRIPOS>SUBSTRUCTURE
     1 UNK         1 GROUP             0       ****    0 ROOT    
