@<TRIPOS>MOLECULE
/home/yujie/leadopt/data/result/selection/WDR5/lig_10.sdf:1
66   70    1
SMALL
USER_CHARGES


@<TRIPOS>ATOM
      1 O1         12.8727   20.1186   23.5658 O.2       1 UNK         0.0000 
      2 C2         12.1210   19.1827   23.8512 C.2       1 UNK         0.0000 
      3 N3         12.0873   18.6742   25.1185 N.am      1 UNK         0.0000 
      4 C4         12.9130   19.2954   26.1762 C.3       1 UNK         0.0000 
      5 C5         14.3484   18.7835   26.3268 C.ar      1 UNK         0.0000 
      6 C6         15.1194   18.3715   25.2311 C.ar      1 UNK         0.0000 
      7 C7         16.4467   17.9450   25.4004 C.ar      1 UNK         0.0000 
      8 O8         17.2768   17.5354   24.3758 O.3       1 UNK         0.0000 
      9 C9         16.7766   17.5119   23.0446 C.3       1 UNK         0.0000 
     10 C10        16.9893   17.9280   26.6838 C.ar      1 UNK         0.0000 
     11 C11        16.2358   18.3303   27.7967 C.ar      1 UNK         0.0000 
     12 O12        16.7105   18.3505   29.0933 O.3       1 UNK         0.0000 
     13 C13        18.0624   17.9728   29.3438 C.3       1 UNK         0.0000 
     14 C14        14.9197   18.7500   27.6020 C.ar      1 UNK         0.0000 
     15 C15        11.1613   17.6050   25.5454 C.3       1 UNK         0.0000 
     16 C16        10.7119   16.6460   24.4231 C.3       1 UNK         0.0000 
     17 C17        10.5457   17.3189   23.0707 C.ar      1 UNK         0.0000 
     18 C18        11.2295   18.5186   22.8259 C.ar      1 UNK         0.0000 
     19 C19        11.1794   19.1044   21.5528 C.ar      1 UNK         0.0000 
     20 C20        10.4698   18.5070   20.5175 C.ar      1 UNK         0.0000 
     21 C21        10.5416   19.0780   19.1097 C.3       1 UNK         0.0000 
     22 N22        11.7337   18.6405   18.3901 N.pl3     1 UNK         0.0000 
     23 C23        12.7148   19.4402   17.8264 C.ar      1 UNK         0.0000 
     24 N24        13.6516   18.6190   17.2204 N.pl3     1 UNK         0.0000 
     25 C25        14.8446   19.0495   16.5132 C.3       1 UNK         0.0000 
     26 C26        13.2655   17.3032   17.4258 C.ar      1 UNK         0.0000 
     27 C27        12.0694   17.3195   18.1259 C.ar      1 UNK         0.0000 
     28 N28        12.7299   20.7940   17.8266 N.pl3     1 UNK         0.0000 
     29 C29         9.7295   17.3570   20.7754 C.ar      1 UNK         0.0000 
     30 C30         9.7665   16.7611   22.0382 C.ar      1 UNK         0.0000 
     31 C31         8.9913   15.5105   22.2357 C.2       1 UNK         0.0000 
     32 C32         9.4608   14.2125   22.2425 C.2       1 UNK         0.0000 
     33 O33         8.4338   13.3605   22.4712 O.3       1 UNK         0.0000 
     34 N34         7.2737   14.1178   22.6267 N.2       1 UNK         0.0000 
     35 C35         7.6188   15.3754   22.4673 C.2       1 UNK         0.0000 
     36 C36         6.5557   16.4468   22.5403 C.3       1 UNK         0.0000 
     37 H37        12.9646   20.3770   26.0304 H         1 UNK         0.0000 
     38 H38        12.3976   19.1689   27.1301 H         1 UNK         0.0000 
     39 H39        14.6919   18.3964   24.2429 H         1 UNK         0.0000 
     40 H40        17.5522   17.1498   22.3695 H         1 UNK         0.0000 
     41 H41        15.9287   16.8313   22.9690 H         1 UNK         0.0000 
     42 H42        16.4781   18.5076   22.7063 H         1 UNK         0.0000 
     43 H43        18.0118   17.6014   26.7941 H         1 UNK         0.0000 
     44 H44        18.2710   18.0590   30.4107 H         1 UNK         0.0000 
     45 H45        18.2509   16.9373   29.0547 H         1 UNK         0.0000 
     46 H46        18.7643   18.6255   28.8198 H         1 UNK         0.0000 
     47 H47        14.3453   19.0678   28.4607 H         1 UNK         0.0000 
     48 H48        11.4440   17.1197   26.4808 H         1 UNK         0.0000 
     49 H49        10.2436   18.1297   25.8172 H         1 UNK         0.0000 
     50 H50         9.7948   16.1403   24.7293 H         1 UNK         0.0000 
     51 H51        11.4515   15.8483   24.3327 H         1 UNK         0.0000 
     52 H52        11.6996   20.0276   21.3477 H         1 UNK         0.0000 
     53 H53         9.6729   18.7913   18.5233 H         1 UNK         0.0000 
     54 H54        10.5143   20.1673   19.1460 H         1 UNK         0.0000 
     55 H55        14.5743   19.3235   15.4931 H         1 UNK         0.0000 
     56 H56        15.2731   19.9110   17.0266 H         1 UNK         0.0000 
     57 H57        15.5732   18.2404   16.4783 H         1 UNK         0.0000 
     58 H58        13.8555   16.4780   17.0490 H         1 UNK         0.0000 
     59 H59        11.4296   16.5153   18.4620 H         1 UNK         0.0000 
     60 H60        12.9948   21.3046   16.9970 H         1 UNK         0.0000 
     61 H61         9.1495   16.9176   19.9789 H         1 UNK         0.0000 
     62 H62        10.4361   13.7636   22.1097 H         1 UNK         0.0000 
     63 H63         6.9599   17.4329   22.3146 H         1 UNK         0.0000 
     64 H64         5.7490   16.2640   21.8303 H         1 UNK         0.0000 
     65 H65         6.1074   16.4989   23.5330 H         1 UNK         0.0000 
     66 H66        12.4021   21.3081   18.6364 H         1 UNK         0.0000 
@<TRIPOS>BOND
     1    1    2 2    
     2    2   18 1    
     3    2    3 am   BACKBONE|DICT|INTERRES
     4    3    4 1    
     5    3   15 1    
     6    4    5 1    
     7    4   37 1    
     8    4   38 1    
     9    5   14 ar   
    10    5    6 ar   
    11    6    7 ar   
    12    6   39 1    
    13    7    8 1    
    14    7   10 ar   
    15    8    9 1    
    16    9   40 1    
    17    9   41 1    
    18    9   42 1    
    19   10   11 ar   
    20   10   43 1    
    21   11   12 1    
    22   11   14 ar   
    23   12   13 1    
    24   13   44 1    
    25   13   45 1    
    26   13   46 1    
    27   14   47 1    
    28   15   16 1    
    29   15   48 1    
    30   15   49 1    
    31   16   17 1    
    32   16   50 1    
    33   16   51 1    
    34   17   30 ar   
    35   17   18 ar   
    36   18   19 ar   
    37   19   20 ar   
    38   19   52 1    
    39   20   21 1    
    40   20   29 ar   
    41   21   22 1    
    42   21   53 1    
    43   21   54 1    
    44   22   27 ar   
    45   22   23 ar   
    46   23   24 ar   
    47   23   28 1    
    48   24   25 1    
    49   24   26 ar   
    50   25   55 1    
    51   25   56 1    
    52   25   57 1    
    53   26   27 ar   
    54   26   58 1    
    55   27   59 1    
    56   28   60 1    
    57   28   66 1    
    58   29   30 ar   
    59   29   61 1    
    60   30   31 1    
    61   31   35 1    
    62   31   32 2    
    63   32   33 1    
    64   32   62 1    
    65   33   34 1    
    66   34   35 2    
    67   35   36 1    
    68   36   63 1    
    69   36   64 1    
    70   36   65 1    
@<TRIPOS>SUBSTRUCTURE
     1 UNK         1 GROUP             0       ****    0 ROOT    
