@<TRIPOS>MOLECULE
/home/yujie/leadopt/data/result/selection/WDR5/lig_19.sdf:1
63   67    1
SMALL
USER_CHARGES


@<TRIPOS>ATOM
      1 O1         12.4739   20.3677   23.8264 O.2       1 UNK         0.0000 
      2 C2         12.0493   19.2211   23.9957 C.2       1 UNK         0.0000 
      3 N3         12.2352   18.5637   25.1834 N.am      1 UNK         0.0000 
      4 C4         13.0745   19.1785   26.2350 C.3       1 UNK         0.0000 
      5 C5         14.5363   18.7292   26.3145 C.ar      1 UNK         0.0000 
      6 C6         15.2253   18.1923   25.2200 C.ar      1 UNK         0.0000 
      7 C7         16.5777   17.8202   25.3364 C.ar      1 UNK         0.0000 
      8 O8         17.3505   17.3181   24.3095 O.3       1 UNK         0.0000 
      9 C9         16.7819   17.1832   23.0160 C.3       1 UNK         0.0000 
     10 C10        17.2212   17.9834   26.5617 C.ar      1 UNK         0.0000 
     11 C11        16.5515   18.5247   27.6679 C.ar      1 UNK         0.0000 
     12 O12        17.1362   18.7537   28.8976 O.3       1 UNK         0.0000 
     13 C13        18.5402   18.5614   29.0445 C.3       1 UNK         0.0000 
     14 C14        15.2094   18.8793   27.5293 C.ar      1 UNK         0.0000 
     15 C15        11.8268   17.1586   25.4053 C.3       1 UNK         0.0000 
     16 C16        10.5762   16.7414   24.6074 C.3       1 UNK         0.0000 
     17 C17        10.6142   17.2544   23.1783 C.ar      1 UNK         0.0000 
     18 C18        11.2742   18.4692   22.9250 C.ar      1 UNK         0.0000 
     19 C19        11.2243   19.0336   21.6408 C.ar      1 UNK         0.0000 
     20 C20        10.6267   18.3497   20.5826 C.ar      1 UNK         0.0000 
     21 C21        10.6254   18.9385   19.1818 C.3       1 UNK         0.0000 
     22 N22        11.8079   18.5870   18.4145 N.pl3     1 UNK         0.0000 
     23 C23        12.1421   17.3774   17.8567 C.ar      1 UNK         0.0000 
     24 N24        13.3006   17.4339   17.2494 N.2       1 UNK         0.0000 
     25 N25        13.7737   18.7366   17.4060 N.2       1 UNK         0.0000 
     26 C26        12.8796   19.3854   18.1064 C.ar      1 UNK         0.0000 
     27 C27        10.0499   17.1038   20.8149 C.ar      1 UNK         0.0000 
     28 C28        10.0279   16.5616   22.1004 C.ar      1 UNK         0.0000 
     29 C29         9.3652   15.2406   22.2652 C.ar      1 UNK         0.0000 
     30 C30         9.9722   13.9978   22.2313 C.ar      1 UNK         0.0000 
     31 N31         8.9719   13.0847   22.4138 N.pl3     1 UNK         0.0000 
     32 C32         9.0736   11.6374   22.5006 C.3       1 UNK         0.0000 
     33 N33         7.7781   13.6660   22.5711 N.2       1 UNK         0.0000 
     34 C34         7.9946   14.9633   22.4658 C.ar      1 UNK         0.0000 
     35 C35         6.8384   15.9429   22.5925 C.3       1 UNK         0.0000 
     36 F36         7.0231   17.0164   21.8281 F         1 UNK         0.0000 
     37 F37         5.6757   15.3974   22.2263 F         1 UNK         0.0000 
     38 F38         6.7092   16.3652   23.8519 F         1 UNK         0.0000 
     39 H39        13.0656   20.2681   26.1659 H         1 UNK         0.0000 
     40 H40        12.6076   18.9567   27.1936 H         1 UNK         0.0000 
     41 H41        14.7142   18.0839   24.2768 H         1 UNK         0.0000 
     42 H42        17.5365   16.8009   22.3288 H         1 UNK         0.0000 
     43 H43        15.9529   16.4766   23.0267 H         1 UNK         0.0000 
     44 H44        16.4358   18.1418   22.6255 H         1 UNK         0.0000 
     45 H45        18.2613   17.7001   26.6259 H         1 UNK         0.0000 
     46 H46        18.8368   18.8591   30.0501 H         1 UNK         0.0000 
     47 H47        18.8195   17.5150   28.9137 H         1 UNK         0.0000 
     48 H48        19.1084   19.1742   28.3421 H         1 UNK         0.0000 
     49 H49        14.7003   19.2990   28.3823 H         1 UNK         0.0000 
     50 H50        12.6258   16.5425   24.9903 H         1 UNK         0.0000 
     51 H51        11.8109   16.8835   26.4593 H         1 UNK         0.0000 
     52 H52         9.6844   17.1206   25.1070 H         1 UNK         0.0000 
     53 H53        10.4842   15.6552   24.6401 H         1 UNK         0.0000 
     54 H54        11.6731   19.9968   21.4376 H         1 UNK         0.0000 
     55 H55         9.7440   18.6119   18.6269 H         1 UNK         0.0000 
     56 H56        10.5558   20.0276   19.2251 H         1 UNK         0.0000 
     57 H57        11.4883   16.5207   17.9439 H         1 UNK         0.0000 
     58 H58        12.9083   20.4176   18.4232 H         1 UNK         0.0000 
     59 H59         9.6095   16.5604   19.9912 H         1 UNK         0.0000 
     60 H60        11.0038   13.6927   22.1087 H         1 UNK         0.0000 
     61 H61        10.0779   11.3147   22.2204 H         1 UNK         0.0000 
     62 H62         8.3515   11.1744   21.8261 H         1 UNK         0.0000 
     63 H63         8.8802   11.3181   23.5273 H         1 UNK         0.0000 
@<TRIPOS>BOND
     1    1    2 2    
     2    2   18 1    
     3    2    3 am   BACKBONE|DICT|INTERRES
     4    3    4 1    
     5    3   15 1    
     6    4    5 1    
     7    4   39 1    
     8    4   40 1    
     9    5   14 ar   
    10    5    6 ar   
    11    6    7 ar   
    12    6   41 1    
    13    7    8 1    
    14    7   10 ar   
    15    8    9 1    
    16    9   42 1    
    17    9   43 1    
    18    9   44 1    
    19   10   11 ar   
    20   10   45 1    
    21   11   12 1    
    22   11   14 ar   
    23   12   13 1    
    24   13   46 1    
    25   13   47 1    
    26   13   48 1    
    27   14   49 1    
    28   15   16 1    
    29   15   50 1    
    30   15   51 1    
    31   16   17 1    
    32   16   52 1    
    33   16   53 1    
    34   17   28 ar   
    35   17   18 ar   
    36   18   19 ar   
    37   19   20 ar   
    38   19   54 1    
    39   20   21 1    
    40   20   27 ar   
    41   21   22 1    
    42   21   55 1    
    43   21   56 1    
    44   22   26 ar   
    45   22   23 ar   
    46   23   24 ar   
    47   23   57 1    
    48   24   25 ar   
    49   25   26 ar   
    50   26   58 1    
    51   27   28 ar   
    52   27   59 1    
    53   28   29 1    
    54   29   34 ar   
    55   29   30 ar   
    56   30   31 ar   
    57   30   60 1    
    58   31   32 1    
    59   31   33 ar   
    60   32   61 1    
    61   32   62 1    
    62   32   63 1    
    63   33   34 ar   
    64   34   35 1    
    65   35   36 1    
    66   35   37 1    
    67   35   38 1    
@<TRIPOS>SUBSTRUCTURE
     1 UNK         1 GROUP             0       ****    0 ROOT    
