@<TRIPOS>MOLECULE
/home/yujie/leadopt/data/result/selection/WDR5/lig_8.sdf:1
69   73    1
SMALL
USER_CHARGES


@<TRIPOS>ATOM
      1 O1         12.8162   20.3318   23.8264 O.2       1 UNK         0.0000 
      2 C2         12.1717   19.3114   24.0779 C.2       1 UNK         0.0000 
      3 N3         12.1815   18.7752   25.3362 N.am      1 UNK         0.0000 
      4 C4         12.9892   19.4101   26.3974 C.3       1 UNK         0.0000 
      5 C5         14.4333   18.9185   26.5360 C.ar      1 UNK         0.0000 
      6 C6         15.0746   19.0646   27.7694 C.ar      1 UNK         0.0000 
      7 C7         16.4024   18.6764   27.9466 C.ar      1 UNK         0.0000 
      8 O8         16.9478   18.8839   29.1982 O.3       1 UNK         0.0000 
      9 C9         18.3210   18.5715   29.4124 C.3       1 UNK         0.0000 
     10 C10        17.0928   18.1136   26.8624 C.ar      1 UNK         0.0000 
     11 C11        16.4774   17.9456   25.6235 C.ar      1 UNK         0.0000 
     12 O12        17.2509   17.3910   24.6228 O.3       1 UNK         0.0000 
     13 C13        16.6753   17.1747   23.3406 C.3       1 UNK         0.0000 
     14 C14        15.1425   18.3498   25.4685 C.ar      1 UNK         0.0000 
     15 C15        11.3373   17.6374   25.7520 C.3       1 UNK         0.0000 
     16 C16        10.9949   16.6495   24.6228 C.3       1 UNK         0.0000 
     17 C17        10.7840   17.3089   23.2712 C.ar      1 UNK         0.0000 
     18 C18        11.3551   18.5707   23.0334 C.ar      1 UNK         0.0000 
     19 C19        11.2576   19.1489   21.7563 C.ar      1 UNK         0.0000 
     20 C20        10.6047   18.4865   20.7164 C.ar      1 UNK         0.0000 
     21 C21        10.5880   19.0544   19.3006 C.3       1 UNK         0.0000 
     22 N22        11.7319   18.6278   18.4934 N.pl3     1 UNK         0.0000 
     23 C23        12.6569   19.4380   17.8508 C.ar      1 UNK         0.0000 
     24 N24        13.5802   18.6269   17.2087 N.pl3     1 UNK         0.0000 
     25 C25        14.7344   19.0718   16.4447 C.3       1 UNK         0.0000 
     26 C26        13.2117   17.3074   17.4265 C.ar      1 UNK         0.0000 
     27 C27        12.0681   17.3110   18.2076 C.ar      1 UNK         0.0000 
     28 N28        12.6498   20.7925   17.8265 N.pl3     1 UNK         0.0000 
     29 C29         9.9971   17.2633   20.9726 C.ar      1 UNK         0.0000 
     30 C30        10.0749   16.6692   22.2332 C.ar      1 UNK         0.0000 
     31 C31         9.4514   15.3313   22.4077 C.ar      1 UNK         0.0000 
     32 C32         8.0559   15.1689   22.4249 C.ar      1 UNK         0.0000 
     33 C33         7.0997   16.3519   22.3441 C.3       1 UNK         0.0000 
     34 C34         7.5418   13.8741   22.5228 C.ar      1 UNK         0.0000 
     35 N35         8.3139   12.7636   22.6224 N.ar      1 UNK         0.0000 
     36 C36         9.6585   12.9352   22.6315 C.ar      1 UNK         0.0000 
     37 C37        10.2597   14.1906   22.5198 C.ar      1 UNK         0.0000 
     38 H38        13.0154   20.4938   26.2621 H         1 UNK         0.0000 
     39 H39        12.4851   19.2629   27.3539 H         1 UNK         0.0000 
     40 H40        14.5477   19.5058   28.6029 H         1 UNK         0.0000 
     41 H41        18.5922   18.8221   30.4388 H         1 UNK         0.0000 
     42 H42        18.5167   17.5078   29.2705 H         1 UNK         0.0000 
     43 H43        18.9718   19.1477   28.7508 H         1 UNK         0.0000 
     44 H44        18.1205   17.8046   26.9586 H         1 UNK         0.0000 
     45 H45        17.4055   16.6948   22.6884 H         1 UNK         0.0000 
     46 H46        15.8072   16.5184   23.4101 H         1 UNK         0.0000 
     47 H47        16.3796   18.1141   22.8707 H         1 UNK         0.0000 
     48 H48        14.6600   18.2429   24.5095 H         1 UNK         0.0000 
     49 H49        11.6545   17.1698   26.6863 H         1 UNK         0.0000 
     50 H50        10.3775   18.0833   26.0191 H         1 UNK         0.0000 
     51 H51        10.1273   16.0569   24.9152 H         1 UNK         0.0000 
     52 H52        11.8104   15.9301   24.5415 H         1 UNK         0.0000 
     53 H53        11.6847   20.1183   21.5499 H         1 UNK         0.0000 
     54 H54         9.6748   18.7608   18.7807 H         1 UNK         0.0000 
     55 H55        10.5590   20.1419   19.3404 H         1 UNK         0.0000 
     56 H56        15.2720   19.8338   17.0127 H         1 UNK         0.0000 
     57 H57        15.4033   18.2330   16.2523 H         1 UNK         0.0000 
     58 H58        14.3993   19.4821   15.4926 H         1 UNK         0.0000 
     59 H59        13.7872   16.4874   17.0139 H         1 UNK         0.0000 
     60 H60        11.4695   16.4953   18.5896 H         1 UNK         0.0000 
     61 H61        12.8751   21.2878   16.9767 H         1 UNK         0.0000 
     62 H62         9.4850   16.7478   20.1712 H         1 UNK         0.0000 
     63 H63         7.2590   16.9153   21.4268 H         1 UNK         0.0000 
     64 H64         6.0517   16.0479   22.3776 H         1 UNK         0.0000 
     65 H65         7.2838   17.0355   23.1732 H         1 UNK         0.0000 
     66 H66         6.4744   13.7187   22.4953 H         1 UNK         0.0000 
     67 H67        10.2632   12.0400   22.7107 H         1 UNK         0.0000 
     68 H68        11.3380   14.2679   22.4950 H         1 UNK         0.0000 
     69 H69        12.3484   21.3183   18.6383 H         1 UNK         0.0000 
@<TRIPOS>BOND
     1    1    2 2    
     2    2   18 1    
     3    2    3 am   BACKBONE|DICT|INTERRES
     4    3    4 1    
     5    3   15 1    
     6    4    5 1    
     7    4   38 1    
     8    4   39 1    
     9    5   14 ar   
    10    5    6 ar   
    11    6    7 ar   
    12    6   40 1    
    13    7    8 1    
    14    7   10 ar   
    15    8    9 1    
    16    9   41 1    
    17    9   42 1    
    18    9   43 1    
    19   10   11 ar   
    20   10   44 1    
    21   11   12 1    
    22   11   14 ar   
    23   12   13 1    
    24   13   45 1    
    25   13   46 1    
    26   13   47 1    
    27   14   48 1    
    28   15   16 1    
    29   15   49 1    
    30   15   50 1    
    31   16   17 1    
    32   16   51 1    
    33   16   52 1    
    34   17   30 ar   
    35   17   18 ar   
    36   18   19 ar   
    37   19   20 ar   
    38   19   53 1    
    39   20   21 1    
    40   20   29 ar   
    41   21   22 1    
    42   21   54 1    
    43   21   55 1    
    44   22   27 ar   
    45   22   23 ar   
    46   23   24 ar   
    47   23   28 1    
    48   24   25 1    
    49   24   26 ar   
    50   25   56 1    
    51   25   57 1    
    52   25   58 1    
    53   26   27 ar   
    54   26   59 1    
    55   27   60 1    
    56   28   61 1    
    57   28   69 1    
    58   29   30 ar   
    59   29   62 1    
    60   30   31 1    
    61   31   37 ar   
    62   31   32 ar   
    63   32   33 1    
    64   32   34 ar   
    65   33   63 1    
    66   33   64 1    
    67   33   65 1    
    68   34   35 ar   
    69   34   66 1    
    70   35   36 ar   
    71   36   37 ar   
    72   36   67 1    
    73   37   68 1    
@<TRIPOS>SUBSTRUCTURE
     1 UNK         1 GROUP             0       ****    0 ROOT    
