@<TRIPOS>MOLECULE
/home/yujie/leadopt/data/result/selection/WDR5/lig_28.sdf:1
62   66    1
SMALL
USER_CHARGES


@<TRIPOS>ATOM
      1 O1         12.4727   20.4627   23.8223 O.2       1 UNK         0.0000 
      2 C2         12.1412   19.2827   23.9677 C.2       1 UNK         0.0000 
      3 N3         12.4728   18.5887   25.1012 N.am      1 UNK         0.0000 
      4 C4         13.3620   19.2138   26.1027 C.3       1 UNK         0.0000 
      5 C5         14.7507   18.5981   26.3261 C.ar      1 UNK         0.0000 
      6 C6         15.6336   18.1660   25.3113 C.ar      1 UNK         0.0000 
      7 C7         15.3076   18.2375   23.8305 C.3       1 UNK         0.0000 
      8 C8         16.9054   17.7184   25.6914 C.ar      1 UNK         0.0000 
      9 C9         17.2737   17.7185   27.0353 C.ar      1 UNK         0.0000 
     10 C10        16.3411   18.1412   27.9781 C.ar      1 UNK         0.0000 
     11 N11        15.1005   18.5710   27.6409 N.ar      1 UNK         0.0000 
     12 C12        12.0712   17.1852   25.3522 C.3       1 UNK         0.0000 
     13 C13        10.7692   16.7712   24.6335 C.3       1 UNK         0.0000 
     14 C14        10.7130   17.2954   23.2096 C.ar      1 UNK         0.0000 
     15 C15        11.3437   18.5186   22.9275 C.ar      1 UNK         0.0000 
     16 C16        11.2415   19.0813   21.6452 C.ar      1 UNK         0.0000 
     17 C17        10.6323   18.3782   20.6058 C.ar      1 UNK         0.0000 
     18 C18        10.6571   18.9147   19.1776 C.3       1 UNK         0.0000 
     19 N19        11.7857   18.4031   18.3949 N.pl3     1 UNK         0.0000 
     20 C20        12.8420   19.1303   17.8653 C.ar      1 UNK         0.0000 
     21 C21        13.0518   20.6151   17.9650 C.3       1 UNK         0.0000 
     22 N22        13.6773   18.2468   17.2186 N.pl3     1 UNK         0.0000 
     23 C23        13.1656   16.9690   17.3273 C.ar      1 UNK         0.0000 
     24 C24        11.9912   17.0716   18.0575 C.ar      1 UNK         0.0000 
     25 C25        10.0445   17.1443   20.8751 C.ar      1 UNK         0.0000 
     26 C26        10.0726   16.6056   22.1621 C.ar      1 UNK         0.0000 
     27 C27         9.4238   15.2791   22.3410 C.ar      1 UNK         0.0000 
     28 C28        10.0360   14.0361   22.3086 C.ar      1 UNK         0.0000 
     29 N29         9.0321   13.1220   22.4706 N.pl3     1 UNK         0.0000 
     30 C30         9.1320   11.6735   22.5147 C.3       1 UNK         0.0000 
     31 N31         7.8392   13.7024   22.6305 N.2       1 UNK         0.0000 
     32 C32         8.0569   15.0019   22.5539 C.ar      1 UNK         0.0000 
     33 C33         6.9025   15.9827   22.6998 C.3       1 UNK         0.0000 
     34 F34         5.7191   15.4028   22.4934 F         1 UNK         0.0000 
     35 F35         6.8844   16.5151   23.9214 F         1 UNK         0.0000 
     36 F36         7.0062   16.9832   21.8270 F         1 UNK         0.0000 
     37 H37        13.5224   20.2759   25.9084 H         1 UNK         0.0000 
     38 H38        12.8221   19.1818   27.0499 H         1 UNK         0.0000 
     39 H39        16.1871   18.0821   23.2044 H         1 UNK         0.0000 
     40 H40        14.5605   17.4918   23.5671 H         1 UNK         0.0000 
     41 H41        14.9151   19.2220   23.5840 H         1 UNK         0.0000 
     42 H42        17.6195   17.3936   24.9483 H         1 UNK         0.0000 
     43 H43        18.2573   17.3896   27.3366 H         1 UNK         0.0000 
     44 H44        16.5849   18.1494   29.0302 H         1 UNK         0.0000 
     45 H45        12.8487   16.5574   24.9146 H         1 UNK         0.0000 
     46 H46        12.1106   16.9182   26.4091 H         1 UNK         0.0000 
     47 H47         9.9150   17.1517   25.1947 H         1 UNK         0.0000 
     48 H48        10.6737   15.6856   24.6644 H         1 UNK         0.0000 
     49 H49        11.6733   20.0482   21.4293 H         1 UNK         0.0000 
     50 H50         9.7350   18.6475   18.6590 H         1 UNK         0.0000 
     51 H51        10.6756   20.0051   19.1801 H         1 UNK         0.0000 
     52 H52        14.0644   20.9231   17.7043 H         1 UNK         0.0000 
     53 H53        12.3625   21.1712   17.3287 H         1 UNK         0.0000 
     54 H54        12.8730   20.9184   18.9909 H         1 UNK         0.0000 
     55 H55        13.6735   16.1185   16.8944 H         1 UNK         0.0000 
     56 H56        11.2838   16.3208   18.3766 H         1 UNK         0.0000 
     57 H57         9.5720   16.5931   20.0753 H         1 UNK         0.0000 
     58 H58        11.0615   13.7204   22.1723 H         1 UNK         0.0000 
     59 H59        10.1336   11.3542   22.2273 H         1 UNK         0.0000 
     60 H60         8.4098   11.2350   21.8257 H         1 UNK         0.0000 
     61 H61         8.9328   11.3230   23.5281 H         1 UNK         0.0000 
     62 H62        14.5409   18.4983   16.7560 H         1 UNK         0.0000 
@<TRIPOS>BOND
     1    1    2 2    
     2    2   15 1    
     3    2    3 am   BACKBONE|DICT|INTERRES
     4    3    4 1    
     5    3   12 1    
     6    4    5 1    
     7    4   37 1    
     8    4   38 1    
     9    5   11 ar   
    10    5    6 ar   
    11    6    7 1    
    12    6    8 ar   
    13    7   39 1    
    14    7   40 1    
    15    7   41 1    
    16    8    9 ar   
    17    8   42 1    
    18    9   10 ar   
    19    9   43 1    
    20   10   11 ar   
    21   10   44 1    
    22   12   13 1    
    23   12   45 1    
    24   12   46 1    
    25   13   14 1    
    26   13   47 1    
    27   13   48 1    
    28   14   26 ar   
    29   14   15 ar   
    30   15   16 ar   
    31   16   17 ar   
    32   16   49 1    
    33   17   18 1    
    34   17   25 ar   
    35   18   19 1    
    36   18   50 1    
    37   18   51 1    
    38   19   24 ar   
    39   19   20 ar   
    40   20   21 1    
    41   20   22 ar   
    42   21   52 1    
    43   21   53 1    
    44   21   54 1    
    45   22   23 ar   
    46   22   62 1    
    47   23   24 ar   
    48   23   55 1    
    49   24   56 1    
    50   25   26 ar   
    51   25   57 1    
    52   26   27 1    
    53   27   32 ar   
    54   27   28 ar   
    55   28   29 ar   
    56   28   58 1    
    57   29   30 1    
    58   29   31 ar   
    59   30   59 1    
    60   30   60 1    
    61   30   61 1    
    62   31   32 ar   
    63   32   33 1    
    64   33   34 1    
    65   33   35 1    
    66   33   36 1    
@<TRIPOS>SUBSTRUCTURE
     1 UNK         1 GROUP             0       ****    0 ROOT    
