@<TRIPOS>MOLECULE
/home/yujie/leadopt/data/result/selection/WDR5/lig_21.sdf:1
71   75    1
SMALL
USER_CHARGES


@<TRIPOS>ATOM
      1 O1         12.4979   20.2356   23.8288 O.2       1 UNK         0.0000 
      2 C2         12.0773   19.0982   24.0561 C.2       1 UNK         0.0000 
      3 N3         12.3050   18.4739   25.2537 N.am      1 UNK         0.0000 
      4 C4         13.1690   19.1204   26.2623 C.3       1 UNK         0.0000 
      5 C5         14.6083   18.6042   26.3457 C.ar      1 UNK         0.0000 
      6 C6         15.2464   18.5819   27.5879 C.ar      1 UNK         0.0000 
      7 C7         16.5639   18.1481   27.7204 C.ar      1 UNK         0.0000 
      8 O8         17.0993   18.1738   28.9896 O.3       1 UNK         0.0000 
      9 C9         18.4573   17.7896   29.1852 C.3       1 UNK         0.0000 
     10 C10        17.2509   17.7196   26.5773 C.ar      1 UNK         0.0000 
     11 C11        16.6408   17.7292   25.3246 C.ar      1 UNK         0.0000 
     12 O12        17.4202   17.3094   24.2655 O.3       1 UNK         0.0000 
     13 C13        16.8217   17.1976   22.9841 C.3       1 UNK         0.0000 
     14 C14        15.3115   18.1703   25.2159 C.ar      1 UNK         0.0000 
     15 C15        11.9395   17.0664   25.5173 C.3       1 UNK         0.0000 
     16 C16        10.6655   16.6111   24.7822 C.3       1 UNK         0.0000 
     17 C17        10.6335   17.1028   23.3473 C.ar      1 UNK         0.0000 
     18 C18        11.2750   18.3156   23.0374 C.ar      1 UNK         0.0000 
     19 C19        11.1940   18.8493   21.7426 C.ar      1 UNK         0.0000 
     20 C20        10.5615   18.1395   20.7252 C.ar      1 UNK         0.0000 
     21 C21        10.5562   18.6645   19.2998 C.3       1 UNK         0.0000 
     22 N22        11.7164   18.2513   18.5214 N.pl3     1 UNK         0.0000 
     23 C23        12.6424   19.0892   17.9248 C.ar      1 UNK         0.0000 
     24 C24        12.6213   20.6033   17.9925 C.3       1 UNK         0.0000 
     25 C25        13.6731   21.2704   17.1131 C.3       1 UNK         0.0000 
     26 N26        13.5580   18.2891   17.2725 N.pl3     1 UNK         0.0000 
     27 C27        13.2083   16.9602   17.4275 C.ar      1 UNK         0.0000 
     28 C28        12.0723   16.9417   18.2232 C.ar      1 UNK         0.0000 
     29 C29         9.9709   16.9140   21.0155 C.ar      1 UNK         0.0000 
     30 C30        10.0016   16.3952   22.3106 C.ar      1 UNK         0.0000 
     31 C31         9.3330   15.0794   22.4915 C.ar      1 UNK         0.0000 
     32 C32         9.9292   13.8278   22.5103 C.ar      1 UNK         0.0000 
     33 N33         8.9025   12.9323   22.6061 N.pl3     1 UNK         0.0000 
     34 C34         8.9800   11.4819   22.6091 C.3       1 UNK         0.0000 
     35 N35         7.7090   13.5295   22.6924 N.2       1 UNK         0.0000 
     36 C36         7.9534   14.8254   22.6266 C.ar      1 UNK         0.0000 
     37 C37         6.8068   15.8254   22.6950 C.3       1 UNK         0.0000 
     38 F38         6.5910   16.2175   23.9503 F         1 UNK         0.0000 
     39 F39         7.0584   16.9186   21.9759 F         1 UNK         0.0000 
     40 F40         5.6731   15.3121   22.2277 F         1 UNK         0.0000 
     41 H41        13.2068   20.2027   26.1321 H         1 UNK         0.0000 
     42 H42        12.7018   18.9743   27.2372 H         1 UNK         0.0000 
     43 H43        14.7266   18.9204   28.4722 H         1 UNK         0.0000 
     44 H44        18.7127   17.8993   30.2414 H         1 UNK         0.0000 
     45 H45        18.6188   16.7436   28.9142 H         1 UNK         0.0000 
     46 H46        19.1472   18.4185   28.6160 H         1 UNK         0.0000 
     47 H47        18.2702   17.3732   26.6374 H         1 UNK         0.0000 
     48 H48        17.5444   16.8005   22.2741 H         1 UNK         0.0000 
     49 H49        15.9783   16.5089   23.0232 H         1 UNK         0.0000 
     50 H50        16.4800   18.1663   22.6141 H         1 UNK         0.0000 
     51 H51        14.8262   18.1987   24.2562 H         1 UNK         0.0000 
     52 H52        12.7343   16.4601   25.0791 H         1 UNK         0.0000 
     53 H53        11.9822   16.8053   26.5747 H         1 UNK         0.0000 
     54 H54         9.7867   16.9774   25.3155 H         1 UNK         0.0000 
     55 H55        10.5991   15.5233   24.8252 H         1 UNK         0.0000 
     56 H56        11.6712   19.7904   21.5001 H         1 UNK         0.0000 
     57 H57         9.6732   18.3168   18.7687 H         1 UNK         0.0000 
     58 H58        10.4761   19.7507   19.3108 H         1 UNK         0.0000 
     59 H59        11.6412   20.9962   17.7204 H         1 UNK         0.0000 
     60 H60        12.7921   20.9081   19.0240 H         1 UNK         0.0000 
     61 H61        13.6416   22.3570   17.1866 H         1 UNK         0.0000 
     62 H62        14.6721   20.9583   17.4278 H         1 UNK         0.0000 
     63 H63        13.5276   20.9943   16.0677 H         1 UNK         0.0000 
     64 H64        13.7891   16.1595   16.9846 H         1 UNK         0.0000 
     65 H65        11.4817   16.1191   18.5994 H         1 UNK         0.0000 
     66 H66         9.4885   16.3608   20.2273 H         1 UNK         0.0000 
     67 H67        10.9551   13.4951   22.4254 H         1 UNK         0.0000 
     68 H68        10.0079   11.1647   22.4246 H         1 UNK         0.0000 
     69 H69         8.3375   11.0812   21.8236 H         1 UNK         0.0000 
     70 H70         8.6581   11.0983   23.5782 H         1 UNK         0.0000 
     71 H71        14.3604   18.6257   16.7578 H         1 UNK         0.0000 
@<TRIPOS>BOND
     1    1    2 2    
     2    2   18 1    
     3    2    3 am   BACKBONE|DICT|INTERRES
     4    3    4 1    
     5    3   15 1    
     6    4    5 1    
     7    4   41 1    
     8    4   42 1    
     9    5   14 ar   
    10    5    6 ar   
    11    6    7 ar   
    12    6   43 1    
    13    7    8 1    
    14    7   10 ar   
    15    8    9 1    
    16    9   44 1    
    17    9   45 1    
    18    9   46 1    
    19   10   11 ar   
    20   10   47 1    
    21   11   12 1    
    22   11   14 ar   
    23   12   13 1    
    24   13   48 1    
    25   13   49 1    
    26   13   50 1    
    27   14   51 1    
    28   15   16 1    
    29   15   52 1    
    30   15   53 1    
    31   16   17 1    
    32   16   54 1    
    33   16   55 1    
    34   17   30 ar   
    35   17   18 ar   
    36   18   19 ar   
    37   19   20 ar   
    38   19   56 1    
    39   20   21 1    
    40   20   29 ar   
    41   21   22 1    
    42   21   57 1    
    43   21   58 1    
    44   22   28 ar   
    45   22   23 ar   
    46   23   24 1    
    47   23   26 ar   
    48   24   25 1    
    49   24   59 1    
    50   24   60 1    
    51   25   61 1    
    52   25   62 1    
    53   25   63 1    
    54   26   27 ar   
    55   26   71 1    
    56   27   28 ar   
    57   27   64 1    
    58   28   65 1    
    59   29   30 ar   
    60   29   66 1    
    61   30   31 1    
    62   31   36 ar   
    63   31   32 ar   
    64   32   33 ar   
    65   32   67 1    
    66   33   34 1    
    67   33   35 ar   
    68   34   68 1    
    69   34   69 1    
    70   34   70 1    
    71   35   36 ar   
    72   36   37 1    
    73   37   38 1    
    74   37   39 1    
    75   37   40 1    
@<TRIPOS>SUBSTRUCTURE
     1 UNK         1 GROUP             0       ****    0 ROOT    
