@<TRIPOS>MOLECULE
/home/yujie/leadopt/data/result/selection/WDR5/lig_5.sdf:1
70   74    1
SMALL
USER_CHARGES


@<TRIPOS>ATOM
      1 O1         12.4730   20.4557   23.8265 O.2       1 UNK         0.0000 
      2 C2         12.0787   19.3041   24.0219 C.2       1 UNK         0.0000 
      3 N3         12.3006   18.6744   25.2156 N.am      1 UNK         0.0000 
      4 C4         13.1602   19.3131   26.2296 C.3       1 UNK         0.0000 
      5 C5         14.6061   18.8148   26.3129 C.ar      1 UNK         0.0000 
      6 C6         15.2816   18.2667   25.2132 C.ar      1 UNK         0.0000 
      7 C7         16.6133   17.8359   25.3341 C.ar      1 UNK         0.0000 
      8 O8         17.3749   17.3180   24.3073 O.3       1 UNK         0.0000 
      9 C9         16.8048   17.1934   23.0142 C.3       1 UNK         0.0000 
     10 C10        17.2530   17.9505   26.5668 C.ar      1 UNK         0.0000 
     11 C11        16.5977   18.4948   27.6783 C.ar      1 UNK         0.0000 
     12 O12        17.1743   18.6570   28.9224 O.3       1 UNK         0.0000 
     13 C13        18.5448   18.3071   29.0983 C.3       1 UNK         0.0000 
     14 C14        15.2758   18.9150   27.5357 C.ar      1 UNK         0.0000 
     15 C15        11.9225   17.2686   25.4802 C.3       1 UNK         0.0000 
     16 C16        10.6591   16.8292   24.7240 C.3       1 UNK         0.0000 
     17 C17        10.6741   17.2948   23.2761 C.ar      1 UNK         0.0000 
     18 C18        11.3085   18.5147   22.9810 C.ar      1 UNK         0.0000 
     19 C19        11.2285   19.0489   21.6859 C.ar      1 UNK         0.0000 
     20 C20        10.6018   18.3391   20.6616 C.ar      1 UNK         0.0000 
     21 C21        10.5717   18.8813   19.2370 C.3       1 UNK         0.0000 
     22 N22        11.7370   18.4846   18.4488 N.pl3     1 UNK         0.0000 
     23 C23        12.6637   19.3149   17.8309 C.ar      1 UNK         0.0000 
     24 N24        13.6158   18.5207   17.2101 N.pl3     1 UNK         0.0000 
     25 C25        14.7754   18.9845   16.4655 C.3       1 UNK         0.0000 
     26 C26        13.2725   17.1926   17.4265 C.ar      1 UNK         0.0000 
     27 C27        12.1087   17.1753   18.1774 C.ar      1 UNK         0.0000 
     28 N28        12.6360   20.6691   17.8257 N.pl3     1 UNK         0.0000 
     29 C29        10.0395   17.0983   20.9399 C.ar      1 UNK         0.0000 
     30 C30        10.0727   16.5634   22.2306 C.ar      1 UNK         0.0000 
     31 C31         9.4611   15.2273   22.4506 C.ar      1 UNK         0.0000 
     32 C32         8.0701   15.0507   22.4441 C.ar      1 UNK         0.0000 
     33 O33         7.2632   16.1538   22.2214 O.3       1 UNK         0.0000 
     34 C34         5.8465   15.9983   22.1915 C.3       1 UNK         0.0000 
     35 N35         7.4887   13.8285   22.6241 N.ar      1 UNK         0.0000 
     36 C36         8.2913   12.7500   22.8070 C.ar      1 UNK         0.0000 
     37 C37         9.6795   12.8448   22.8271 C.ar      1 UNK         0.0000 
     38 C38        10.2655   14.0970   22.6435 C.ar      1 UNK         0.0000 
     39 H39        13.1786   20.4006   26.1232 H         1 UNK         0.0000 
     40 H40        12.6947   19.1365   27.1998 H         1 UNK         0.0000 
     41 H41        14.7734   18.1960   24.2654 H         1 UNK         0.0000 
     42 H42        17.5488   16.7951   22.3242 H         1 UNK         0.0000 
     43 H43        15.9573   16.5078   23.0265 H         1 UNK         0.0000 
     44 H44        16.4784   18.1604   22.6263 H         1 UNK         0.0000 
     45 H45        18.2785   17.6207   26.6332 H         1 UNK         0.0000 
     46 H46        18.8438   18.5251   30.1235 H         1 UNK         0.0000 
     47 H47        18.7117   17.2433   28.9251 H         1 UNK         0.0000 
     48 H48        19.1928   18.8841   28.4363 H         1 UNK         0.0000 
     49 H49        14.7733   19.3385   28.3914 H         1 UNK         0.0000 
     50 H50        12.7198   16.6480   25.0686 H         1 UNK         0.0000 
     51 H51        11.9244   17.0244   26.5438 H         1 UNK         0.0000 
     52 H52         9.7796   17.2343   25.2255 H         1 UNK         0.0000 
     53 H53        10.5637   15.7475   24.8043 H         1 UNK         0.0000 
     54 H54        11.6733   20.0065   21.4523 H         1 UNK         0.0000 
     55 H55         9.6815   18.5239   18.7210 H         1 UNK         0.0000 
     56 H56        10.4733   19.9674   19.2435 H         1 UNK         0.0000 
     57 H57        15.2715   19.7832   17.0224 H         1 UNK         0.0000 
     58 H58        15.4785   18.1661   16.3091 H         1 UNK         0.0000 
     59 H59        14.4531   19.3527   15.4906 H         1 UNK         0.0000 
     60 H60        13.8717   16.3867   17.0307 H         1 UNK         0.0000 
     61 H61        11.5224   16.3470   18.5533 H         1 UNK         0.0000 
     62 H62        12.9468   21.1842   17.0100 H         1 UNK         0.0000 
     63 H63         9.5689   16.5361   20.1460 H         1 UNK         0.0000 
     64 H64         5.3817   16.9516   21.9483 H         1 UNK         0.0000 
     65 H65         5.4735   15.6734   23.1632 H         1 UNK         0.0000 
     66 H66         5.5284   15.2918   21.4268 H         1 UNK         0.0000 
     67 H67         7.8046   11.7948   22.9442 H         1 UNK         0.0000 
     68 H68        10.2924   11.9623   22.9718 H         1 UNK         0.0000 
     69 H69        11.3436   14.1772   22.6411 H         1 UNK         0.0000 
     70 H70        12.2686   21.1787   18.6216 H         1 UNK         0.0000 
@<TRIPOS>BOND
     1    1    2 2    
     2    2   18 1    
     3    2    3 am   BACKBONE|DICT|INTERRES
     4    3    4 1    
     5    3   15 1    
     6    4    5 1    
     7    4   39 1    
     8    4   40 1    
     9    5   14 ar   
    10    5    6 ar   
    11    6    7 ar   
    12    6   41 1    
    13    7    8 1    
    14    7   10 ar   
    15    8    9 1    
    16    9   42 1    
    17    9   43 1    
    18    9   44 1    
    19   10   11 ar   
    20   10   45 1    
    21   11   12 1    
    22   11   14 ar   
    23   12   13 1    
    24   13   46 1    
    25   13   47 1    
    26   13   48 1    
    27   14   49 1    
    28   15   16 1    
    29   15   50 1    
    30   15   51 1    
    31   16   17 1    
    32   16   52 1    
    33   16   53 1    
    34   17   30 ar   
    35   17   18 ar   
    36   18   19 ar   
    37   19   20 ar   
    38   19   54 1    
    39   20   21 1    
    40   20   29 ar   
    41   21   22 1    
    42   21   55 1    
    43   21   56 1    
    44   22   27 ar   
    45   22   23 ar   
    46   23   24 ar   
    47   23   28 1    
    48   24   25 1    
    49   24   26 ar   
    50   25   57 1    
    51   25   58 1    
    52   25   59 1    
    53   26   27 ar   
    54   26   60 1    
    55   27   61 1    
    56   28   62 1    
    57   28   70 1    
    58   29   30 ar   
    59   29   63 1    
    60   30   31 1    
    61   31   38 ar   
    62   31   32 ar   
    63   32   33 1    
    64   32   35 ar   
    65   33   34 1    
    66   34   64 1    
    67   34   65 1    
    68   34   66 1    
    69   35   36 ar   
    70   36   37 ar   
    71   36   67 1    
    72   37   38 ar   
    73   37   68 1    
    74   38   69 1    
@<TRIPOS>SUBSTRUCTURE
     1 UNK         1 GROUP             0       ****    0 ROOT    
