/home/yujie/leadopt/data/result/selection/WDR5/lig_26.sdf:1
                    3D
 Schrodinger Suite 2020-3.
 61 65  0  0  1  0            999 V2000
   12.4753   20.4269   23.8273 O   0  0  0  0  0  0
   12.0686   19.2695   23.9595 C   0  0  0  0  0  0
   12.2590   18.5776   25.1257 N   0  0  0  0  0  0
   13.1826   19.1141   26.1425 C   0  0  0  0  0  0
   14.6358   18.6369   26.0607 C   0  0  0  0  0  0
   15.4346   18.6572   27.2082 C   0  0  0  0  0  0
   16.7470   18.1903   27.1219 C   0  0  0  0  0  0
   17.2298   17.7183   25.9024 C   0  0  0  0  0  0
   16.3733   17.7189   24.7975 C   0  0  0  0  0  0
   16.8341   17.2347   23.4348 C   0  0  0  0  0  0
   15.0919   18.1633   24.8657 N   0  0  0  0  0  0
   11.8636   17.1630   25.3043 C   0  0  0  0  0  0
   10.5789   16.8015   24.5425 C   0  0  0  0  0  0
   10.6167   17.3302   23.1191 C   0  0  0  0  0  0
   11.2871   18.5411   22.8806 C   0  0  0  0  0  0
   11.2494   19.1209   21.6042 C   0  0  0  0  0  0
   10.6812   18.4414   20.5287 C   0  0  0  0  0  0
   10.7563   19.0313   19.1228 C   0  0  0  0  0  0
   11.9018   18.5627   18.3392 N   0  0  0  0  0  0
   12.8718   19.3026   17.6859 C   0  0  0  0  0  0
   12.9053   20.8134   17.6456 C   0  0  0  0  0  0
   13.7481   18.5521   17.0551 N   0  0  0  0  0  0
   13.3504   17.3115   17.2582 C   0  0  0  0  0  0
   12.2083   17.2610   18.0353 C   0  0  0  0  0  0
   10.0748   17.2041   20.7490 C   0  0  0  0  0  0
   10.0301   16.6539   22.0339 C   0  0  0  0  0  0
    9.3641   15.3367   22.2163 C   0  0  0  0  0  0
    9.9730   14.0936   22.2265 C   0  0  0  0  0  0
    8.9681   13.1863   22.4177 N   0  0  0  0  0  0
    9.0695   11.7392   22.5071 C   0  0  0  0  0  0
    7.7775   13.7742   22.5699 N   0  0  0  0  0  0
    7.9980   15.0713   22.4478 C   0  0  0  0  0  0
    6.8473   16.0577   22.5877 C   0  0  0  0  0  0
    7.0351   17.1346   21.8267 F   0  0  0  0  0  0
    5.6797   15.5236   22.2270 F   0  0  0  0  0  0
    6.7333   16.4757   23.8474 F   0  0  0  0  0  0
   13.1772   20.2059   26.1559 H   0  0  0  0  0  0
   12.7955   18.8168   27.1174 H   0  0  0  0  0  0
   15.0503   19.0270   28.1474 H   0  0  0  0  0  0
   17.3871   18.2023   27.9916 H   0  0  0  0  0  0
   18.2439   17.3634   25.8263 H   0  0  0  0  0  0
   17.8106   16.7524   23.4900 H   0  0  0  0  0  0
   16.1270   16.5140   23.0254 H   0  0  0  0  0  0
   16.9055   18.0709   22.7401 H   0  0  0  0  0  0
   12.6382   16.5551   24.8349 H   0  0  0  0  0  0
   11.8832   16.8483   26.3474 H   0  0  0  0  0  0
    9.7149   17.2081   25.0692 H   0  0  0  0  0  0
   10.4554   15.7189   24.5637 H   0  0  0  0  0  0
   11.6884   20.0907   21.4234 H   0  0  0  0  0  0
   10.7916   20.1188   19.1836 H   0  0  0  0  0  0
    9.8476   18.7993   18.5680 H   0  0  0  0  0  0
   13.6708   21.1971   16.9723 H   0  0  0  0  0  0
   13.1139   21.2297   18.6249 H   0  0  0  0  0  0
   11.9579   21.2332   17.3084 H   0  0  0  0  0  0
   13.8806   16.4644   16.8489 H   0  0  0  0  0  0
   11.6050   16.4393   18.3899 H   0  0  0  0  0  0
    9.6425   16.6693   19.9161 H   0  0  0  0  0  0
   10.9980   13.7739   22.1000 H   0  0  0  0  0  0
   10.0742   11.4129   22.2332 H   0  0  0  0  0  0
    8.8672   11.4173   23.5283 H   0  0  0  0  0  0
    8.3524   11.2797   21.8274 H   0  0  0  0  0  0
  1  2  2  0  0  0
  2 15  1  0  0  0
  2  3  1  0  0  0
  3  4  1  0  0  0
  3 12  1  0  0  0
  4  5  1  0  0  0
  4 37  1  0  0  0
  4 38  1  0  0  0
  5 11  1  0  0  0
  5  6  2  0  0  0
  6  7  1  0  0  0
  6 39  1  0  0  0
  7  8  2  0  0  0
  7 40  1  0  0  0
  8  9  1  0  0  0
  8 41  1  0  0  0
  9 10  1  0  0  0
  9 11  2  0  0  0
 10 42  1  0  0  0
 10 43  1  0  0  0
 10 44  1  0  0  0
 12 13  1  0  0  0
 12 45  1  0  0  0
 12 46  1  0  0  0
 13 14  1  0  0  0
 13 47  1  0  0  0
 13 48  1  0  0  0
 14 26  1  0  0  0
 14 15  2  0  0  0
 15 16  1  0  0  0
 16 17  2  0  0  0
 16 49  1  0  0  0
 17 18  1  0  0  0
 17 25  1  0  0  0
 18 19  1  0  0  0
 18 50  1  0  0  0
 18 51  1  0  0  0
 19 24  1  0  0  0
 19 20  1  0  0  0
 20 21  1  0  0  0
 20 22  2  0  0  0
 21 52  1  0  0  0
 21 53  1  0  0  0
 21 54  1  0  0  0
 22 23  1  0  0  0
 23 24  2  0  0  0
 23 55  1  0  0  0
 24 56  1  0  0  0
 25 26  2  0  0  0
 25 57  1  0  0  0
 26 27  1  0  0  0
 27 32  1  0  0  0
 27 28  2  0  0  0
 28 29  1  0  0  0
 28 58  1  0  0  0
 29 30  1  0  0  0
 29 31  1  0  0  0
 30 59  1  0  0  0
 30 60  1  0  0  0
 30 61  1  0  0  0
 31 32  2  0  0  0
 32 33  1  0  0  0
 33 34  1  0  0  0
 33 35  1  0  0  0
 33 36  1  0  0  0
M  END
> <s_m_source_file>
/home/yujie/leadopt/data/result/selection/WDR5/lig_26.sdf

> <i_m_source_file_index>
1

> <i_lp_mmshare_version>
51139

> <i_f3d_flags>
0

> <s_epik_input>
W0NIM11jKG4xKVtjSF1bY0hdW2NIXWMxW0NIMl1OKFtDSDJdW0NIMl0yKUMoPU8pYyhjMjMpW2NIXWMoW0NIMl1uNGMoW0NIM10pbltjSF1bY0hdNClbY0hdYzMtYzVbY0hdbihbQ0gzXSluYzVDKEYpKEYpRg==

> <s_epik_cmdline>
J2VwaWtfcHl0aG9uJywgJy1waHQnLCAnMi4wJywgJy1waCcsICc3LjAnLCAnLXRuJywgJzgnLCAnLW1hJywgJzIwMCcsICctaW1hZScsICc8aW5maWxlLm1hZT4nLCAnLW9tYWUnLCAnPG91dGZpbGUubWFlPic=

> <r_lp_tautomer_probability>
1

> <r_epik_Ionization_Penalty>
  0.8319

> <r_epik_Ionization_Penalty_Charging>
  0.8315

> <r_epik_Ionization_Penalty_Neutral>
  0.0004

> <r_epik_State_Penalty>
  0.8654

> <r_epik_Charging_Adjusted_Penalty>
1.69691

> <i_epik_Tot_Q>
0

> <i_epik_Tot_abs_Q>
0

> <s_lp_Force_Field>
OPLS3e

> <r_lp_Energy>
48.3214

> <b_lp_Chiralities_Consistent>
1

> <s_lp_Variant>
/home/yujie/leadopt/data/result/selection/WDR5/lig_26.sdf:1-2

> <s_i_glide_gridfile>
glide-grid_WDR5

> <i_i_glide_lignum>
2

> <i_i_glide_rotatable_bonds>
6

> <r_i_docking_score>
-10.3642338966688

> <r_i_glide_ligand_efficiency>
-0.287895386018579

> <r_i_glide_ligand_efficiency_sa>
-0.950609618790274

> <r_i_glide_ligand_efficiency_ln>
-2.26119582701231

> <r_i_glide_gscore>
-11.2296508966688

> <r_i_glide_lipo>
-4.29497511275882

> <r_i_glide_hbond>
-0.32

> <r_i_glide_metal>
-0

> <r_i_glide_rewards>
-2.62834804721725

> <r_i_glide_evdw>
-60.2319793701172

> <r_i_glide_ecoul>
-9.16569137573242

> <r_i_glide_erotb>
0.416676894478013

> <r_i_glide_esite>
-0.0165519563050559

> <r_i_glide_emodel>
-111.418735297602

> <r_i_glide_energy>
-69.3976707458496

> <r_i_glide_einternal>
5.37688255310059

> <i_i_glide_confnum>
48

> <i_i_glide_posenum>
119

> <r_i_glide_eff_state_penalty>
0.865417

$$$$
