20669(2qbr)
                    3D
 Schrodinger Suite 2021-2.
 42 44  0  0  1  0            999 V2000
   39.3559   17.9551   12.6780 O   0  0  0  0  0  0
   40.4946   17.4459   12.7894 C   0  0  0  0  0  0
   41.3934   17.5536   11.9187 O   0  5  0  0  0  0
   40.8150   16.6192   14.0466 C   0  0  0  0  0  0
   42.0097   15.8740   13.8207 O   0  0  0  0  0  0
   42.3417   14.9658   14.7694 C   0  0  0  0  0  0
   41.8797   13.6286   14.7999 C   0  0  0  0  0  0
   40.7101   13.0475   13.4574 Br  0  0  0  0  0  0
   42.3434   12.8362   15.8198 C   0  0  0  0  0  0
   42.0517   11.4411   16.1543 C   0  0  0  0  0  0
   43.0392   10.5788   16.6795 C   0  0  0  0  0  0
   42.7421    9.2297   16.9580 C   0  0  0  0  0  0
   41.4630    8.7110   16.6820 C   0  0  0  0  0  0
   40.4657    9.5619   16.1600 C   0  0  0  0  0  0
   39.1247    9.0505   15.8920 N   0  0  0  0  0  0
   38.8092    7.6512   16.1642 C   0  0  0  0  0  0
   38.3805    6.9790   14.8937 C   0  0  0  0  0  0
   39.2490    6.9227   13.8100 C   0  0  0  0  0  0
   38.8518    6.2998   12.6328 C   0  0  0  0  0  0
   37.5862    5.7333   12.5391 C   0  0  0  0  0  0
   36.7177    5.7896   13.6227 C   0  0  0  0  0  0
   37.1149    6.4124   14.8000 C   0  0  0  0  0  0
   40.7641   10.9175   15.9384 C   0  0  0  0  0  0
   43.4380   13.7691   16.7975 S   0  0  0  0  0  0
   43.2147   15.1974   15.7986 C   0  0  0  0  0  0
   43.9691   16.3931   16.1959 C   0  0  0  0  0  0
   44.5707   16.3980   17.2924 O   0  0  0  0  0  0
   43.9914   17.3937   15.4429 O   0  5  0  0  0  0
   40.9544   17.2884   14.8957 H   0  0  0  0  0  0
   39.9901   15.9373   14.2530 H   0  0  0  0  0  0
   44.0374   10.9468   16.8676 H   0  0  0  0  0  0
   43.4995    8.5884   17.3841 H   0  0  0  0  0  0
   41.2767    7.6661   16.8792 H   0  0  0  0  0  0
   38.3978    9.6798   15.5092 H   0  0  0  0  0  0
   39.6924    7.1500   16.5604 H   0  0  0  0  0  0
   38.0019    7.5962   16.8946 H   0  0  0  0  0  0
   40.2344    7.3637   13.8830 H   0  0  0  0  0  0
   39.5280    6.2560   11.7891 H   0  0  0  0  0  0
   37.2769    5.2484   11.6226 H   0  0  0  0  0  0
   35.7323    5.3485   13.5498 H   0  0  0  0  0  0
   36.4387    6.4563   15.6436 H   0  0  0  0  0  0
   39.9756   11.5730   15.5977 H   0  0  0  0  0  0
  1  2  2  0  0  0
  2  3  1  0  0  0
  2  4  1  0  0  0
  4  5  1  0  0  0
  4 29  1  0  0  0
  4 30  1  0  0  0
  5  6  1  0  0  0
  6 25  2  0  0  0
  6  7  1  0  0  0
  7  8  1  0  0  0
  7  9  2  0  0  0
  9 10  1  0  0  0
  9 24  1  0  0  0
 10 23  1  0  0  0
 10 11  2  0  0  0
 11 12  1  0  0  0
 11 31  1  0  0  0
 12 13  2  0  0  0
 12 32  1  0  0  0
 13 14  1  0  0  0
 13 33  1  0  0  0
 14 15  1  0  0  0
 14 23  2  0  0  0
 15 16  1  0  0  0
 15 34  1  0  0  0
 16 17  1  0  0  0
 16 35  1  0  0  0
 16 36  1  0  0  0
 17 22  1  0  0  0
 17 18  2  0  0  0
 18 19  1  0  0  0
 18 37  1  0  0  0
 19 20  2  0  0  0
 19 38  1  0  0  0
 20 21  1  0  0  0
 20 39  1  0  0  0
 21 22  2  0  0  0
 21 40  1  0  0  0
 22 41  1  0  0  0
 23 42  1  0  0  0
 24 25  1  0  0  0
 25 26  1  0  0  0
 26 27  2  0  0  0
 26 28  1  0  0  0
M  CHG  2   3  -1  28  -1
M  END
> <i_m_stars>
3

> <s_m_entry_id>
445

> <s_m_entry_name>
PTP1B_206692qbr.1

> <r_user_dG.exp>
-8.60732535283582

> <r_m_Molecular_weight>
460.31128

> <s_m_Source_Path>
C:\Users\yujiethinkpad\Desktop\05A\PTP1B

> <s_m_Source_File>
PTP1B_206692qbr.sdf

> <i_m_Source_File_Index>
1

> <s_m_job_name>
align_ligands_6265

> <i_phase_Input_Structure_Number>
15

> <i_phase_Structure_Number>
15

> <r_phase_Similarity_to_Reference>
0.90112998850005

> <i_phase_Reference_Structure>
1

> <s_phase_Alignment_Method>
snapped core

> <s_phase_Alignment_Reason>


> <s_phase_Core_SMARTS>
a1aaaa1-a2aaaaa2

> <s_f3d_frozen_atoms>
24 25 6 7 9 10 23 14 13 12 11 8 42 33 32 31

> <s_m_subgroup_title>
align_ligands_6265

> <s_m_subgroupid>
align_ligands_6265

> <b_m_subgroup_collapsed>
0

$$$$
