23330(2qbq)
                    3D
 Schrodinger Suite 2021-2.
 57 59  0  0  1  0            999 V2000
   43.4380   13.7691   16.7975 S   0  0  0  0  0  0
   43.2147   15.1974   15.7986 C   0  0  0  0  0  0
   42.3417   14.9658   14.7694 C   0  0  0  0  0  0
   41.8797   13.6286   14.7999 C   0  0  0  0  0  0
   42.3434   12.8362   15.8198 C   0  0  0  0  0  0
   43.9691   16.3931   16.1959 C   0  0  0  0  0  0
   44.5707   16.3980   17.2924 O   0  0  0  0  0  0
   43.9914   17.3937   15.4429 O   0  5  0  0  0  0
   42.0517   11.4411   16.1543 C   0  0  0  0  0  0
   40.7641   10.9175   15.9384 C   0  0  0  0  0  0
   40.4657    9.5619   16.1600 C   0  0  0  0  0  0
   41.4630    8.7110   16.6820 C   0  0  0  0  0  0
   42.7421    9.2297   16.9580 C   0  0  0  0  0  0
   43.0392   10.5788   16.6795 C   0  0  0  0  0  0
   40.7101   13.0475   13.4574 Br  0  0  0  0  0  0
   42.0097   15.8740   13.8207 O   0  0  0  0  0  0
   40.8150   16.6192   14.0466 C   0  0  0  0  0  0
   40.4946   17.4459   12.7894 C   0  0  0  0  0  0
   39.3559   17.9551   12.6780 O   0  0  0  0  0  0
   41.3934   17.5536   11.9187 O   0  5  0  0  0  0
   39.1687    9.1312   15.8451 N   0  0  0  0  0  0
   38.9105    7.7543   15.4257 C   0  0  0  0  0  0
   37.3806    7.5367   15.3272 C   0  0  0  0  0  0
   37.0148    6.1372   14.7948 C   0  0  0  0  0  0
   37.7095    5.8387   13.4539 C   0  0  0  0  0  0
   39.2331    6.0217   13.5573 C   0  0  0  0  0  0
   39.5979    7.4262   14.0768 C   0  0  0  0  0  0
   35.5272    6.0207   14.6410 C   0  0  0  0  0  0
   37.4182    5.1044   15.8051 C   0  0  0  0  0  0
   39.8710    5.7895   12.2197 C   0  0  0  0  0  0
   39.8002    4.9870   14.4834 C   0  0  0  0  0  0
   39.9831   11.5691   15.5746 H   0  0  0  0  0  0
   41.2653    7.6672   16.8719 H   0  0  0  0  0  0
   43.5078    8.5881   17.3698 H   0  0  0  0  0  0
   44.0373   10.9465   16.8630 H   0  0  0  0  0  0
   39.9933   15.9341   14.2550 H   0  0  0  0  0  0
   40.9576   17.2851   14.8977 H   0  0  0  0  0  0
   38.5862    9.8221   15.3866 H   0  0  0  0  0  0
   39.3299    7.1143   16.2020 H   0  0  0  0  0  0
   36.9207    7.6808   16.3047 H   0  0  0  0  0  0
   36.9452    8.2898   14.6703 H   0  0  0  0  0  0
   37.4795    4.8225   13.1339 H   0  0  0  0  0  0
   37.3146    6.4992   12.6820 H   0  0  0  0  0  0
   39.3112    8.1668   13.3302 H   0  0  0  0  0  0
   40.6801    7.5020   14.1828 H   0  0  0  0  0  0
   35.2775    5.0287   14.2644 H   0  0  0  0  0  0
   35.0488    6.1731   15.6085 H   0  0  0  0  0  0
   35.1744    6.7755   13.9383 H   0  0  0  0  0  0
   37.1615    4.1125   15.4331 H   0  0  0  0  0  0
   38.4935    5.1621   15.9740 H   0  0  0  0  0  0
   36.8928    5.2882   16.7423 H   0  0  0  0  0  0
   40.9497    5.9216   12.3038 H   0  0  0  0  0  0
   39.6541    4.7752   11.8849 H   0  0  0  0  0  0
   39.4727    6.5032   11.4985 H   0  0  0  0  0  0
   40.8800    5.1173   14.5563 H   0  0  0  0  0  0
   39.3532    5.0994   15.4712 H   0  0  0  0  0  0
   39.5796    3.9924   14.0958 H   0  0  0  0  0  0
  1  2  1  0  0  0
  1  5  1  0  0  0
  2  3  2  0  0  0
  2  6  1  0  0  0
  3  4  1  0  0  0
  3 16  1  0  0  0
  4  5  2  0  0  0
  4 15  1  0  0  0
  5  9  1  0  0  0
  6  7  2  0  0  0
  6  8  1  0  0  0
  9 10  1  0  0  0
  9 14  2  0  0  0
 10 11  2  0  0  0
 10 32  1  0  0  0
 11 12  1  0  0  0
 11 21  1  0  0  0
 12 13  2  0  0  0
 12 33  1  0  0  0
 13 14  1  0  0  0
 13 34  1  0  0  0
 14 35  1  0  0  0
 16 17  1  0  0  0
 17 18  1  0  0  0
 17 36  1  0  0  0
 17 37  1  0  0  0
 18 19  2  0  0  0
 18 20  1  0  0  0
 21 22  1  0  0  0
 21 38  1  0  0  0
 22 23  1  0  0  0
 22 27  1  0  0  0
 22 39  1  0  0  0
 23 24  1  0  0  0
 23 40  1  0  0  0
 23 41  1  0  0  0
 24 25  1  0  0  0
 24 28  1  0  0  0
 24 29  1  0  0  0
 25 26  1  0  0  0
 25 42  1  0  0  0
 25 43  1  0  0  0
 26 27  1  0  0  0
 26 30  1  0  0  0
 26 31  1  0  0  0
 27 44  1  0  0  0
 27 45  1  0  0  0
 28 46  1  0  0  0
 28 47  1  0  0  0
 28 48  1  0  0  0
 29 49  1  0  0  0
 29 50  1  0  0  0
 29 51  1  0  0  0
 30 52  1  0  0  0
 30 53  1  0  0  0
 30 54  1  0  0  0
 31 55  1  0  0  0
 31 56  1  0  0  0
 31 57  1  0  0  0
M  CHG  2   8  -1  20  -1
M  END
> <i_m_stars>
3

> <s_m_entry_id>
446

> <s_m_entry_name>
PTP1B_233302qbq.1

> <r_user_dG.exp>
-10.1250500980544

> <r_m_Molecular_weight>
508.44037

> <s_m_Source_Path>
C:\Users\yujiethinkpad\Desktop\05A\PTP1B

> <s_m_Source_File>
PTP1B_233302qbq.sdf

> <i_m_Source_File_Index>
1

> <s_m_job_name>
align_ligands_6265

> <i_phase_Input_Structure_Number>
16

> <i_phase_Structure_Number>
16

> <r_phase_Similarity_to_Reference>
0.828114193646686

> <i_phase_Reference_Structure>
1

> <s_phase_Alignment_Method>
snapped core

> <s_phase_Alignment_Reason>


> <s_phase_Core_SMARTS>
a1aaaa1-a2aa(aaa2)AA3AAAAA3

> <s_f3d_frozen_atoms>
1 2 3 4 5 9 10 11 12 13 14 21 22 23 24 25 26 27 15 32 33 34 35 38 39 40 41 42 43 44 45

> <s_m_subgroup_title>
align_ligands_6265

> <s_m_subgroupid>
align_ligands_6265

> <b_m_subgroup_collapsed>
0

$$$$
