23468
                    3D
 Schrodinger Suite 2021-2.
 37 38  0  0  1  0            999 V2000
   37.1299    6.3998   14.5542 C   0  0  0  0  0  0
   37.3419    7.5890   15.4435 C   0  0  0  0  0  0
   38.8096    7.7699   15.6950 C   0  0  0  0  0  0
   39.6405    6.8668   15.7228 O   0  0  0  0  0  0
   39.1250    9.0505   15.8907 N   0  0  0  0  0  0
   40.4657    9.5619   16.1600 C   0  0  0  0  0  0
   41.4630    8.7110   16.6820 C   0  0  0  0  0  0
   42.7421    9.2297   16.9580 C   0  0  0  0  0  0
   43.0392   10.5788   16.6795 C   0  0  0  0  0  0
   42.0517   11.4411   16.1543 C   0  0  0  0  0  0
   42.3434   12.8362   15.8198 C   0  0  0  0  0  0
   43.4380   13.7691   16.7975 S   0  0  0  0  0  0
   43.2147   15.1974   15.7986 C   0  0  0  0  0  0
   43.9691   16.3931   16.1959 C   0  0  0  0  0  0
   44.5707   16.3980   17.2924 O   0  0  0  0  0  0
   43.9914   17.3937   15.4429 O   0  5  0  0  0  0
   42.3417   14.9658   14.7694 C   0  0  0  0  0  0
   42.0097   15.8740   13.8207 O   0  0  0  0  0  0
   40.8150   16.6192   14.0466 C   0  0  0  0  0  0
   40.4946   17.4459   12.7894 C   0  0  0  0  0  0
   39.3559   17.9551   12.6780 O   0  0  0  0  0  0
   41.3934   17.5536   11.9187 O   0  5  0  0  0  0
   41.8797   13.6286   14.7999 C   0  0  0  0  0  0
   40.7101   13.0475   13.4574 Br  0  0  0  0  0  0
   40.7641   10.9175   15.9384 C   0  0  0  0  0  0
   36.0634    6.2684   14.3714 H   0  0  0  0  0  0
   37.6441    6.5586   13.6063 H   0  0  0  0  0  0
   37.5281    5.5082   15.0386 H   0  0  0  0  0  0
   36.9438    8.4805   14.9590 H   0  0  0  0  0  0
   36.8277    7.4302   16.3913 H   0  0  0  0  0  0
   38.4749    9.8234   15.8765 H   0  0  0  0  0  0
   41.2666    7.6704   16.8888 H   0  0  0  0  0  0
   43.4990    8.5933   17.3922 H   0  0  0  0  0  0
   44.0316   10.9538   16.8834 H   0  0  0  0  0  0
   39.9933   15.9341   14.2550 H   0  0  0  0  0  0
   40.9576   17.2851   14.8977 H   0  0  0  0  0  0
   39.9884   11.5791   15.5810 H   0  0  0  0  0  0
  1  2  1  0  0  0
  1 26  1  0  0  0
  1 27  1  0  0  0
  1 28  1  0  0  0
  2  3  1  0  0  0
  2 29  1  0  0  0
  2 30  1  0  0  0
  3  4  2  0  0  0
  3  5  1  0  0  0
  5  6  1  0  0  0
  5 31  1  0  0  0
  6 25  1  0  0  0
  6  7  2  0  0  0
  7  8  1  0  0  0
  7 32  1  0  0  0
  8  9  2  0  0  0
  8 33  1  0  0  0
  9 10  1  0  0  0
  9 34  1  0  0  0
 10 11  1  0  0  0
 10 25  2  0  0  0
 11 23  2  0  0  0
 11 12  1  0  0  0
 12 13  1  0  0  0
 13 14  1  0  0  0
 13 17  2  0  0  0
 14 15  2  0  0  0
 14 16  1  0  0  0
 17 18  1  0  0  0
 17 23  1  0  0  0
 18 19  1  0  0  0
 19 20  1  0  0  0
 19 35  1  0  0  0
 19 36  1  0  0  0
 20 21  2  0  0  0
 20 22  1  0  0  0
 23 24  1  0  0  0
 25 37  1  0  0  0
M  CHG  2  16  -1  22  -1
M  END
> <i_m_stars>
2

> <s_m_entry_id>
449

> <s_m_entry_name>
PTP1B_23468.1

> <r_user_dG.exp>
-7.75184064198728

> <r_m_Molecular_weight>
426.25014

> <s_m_Source_Path>
C:\Users\yujiethinkpad\Desktop\05A\PTP1B

> <s_m_Source_File>
PTP1B_23468.sdf

> <i_m_Source_File_Index>
1

> <s_m_job_name>
align_ligands_6265

> <i_phase_Input_Structure_Number>
19

> <i_phase_Structure_Number>
19

> <r_phase_Similarity_to_Reference>
0.835439090773034

> <i_phase_Reference_Structure>
1

> <s_phase_Alignment_Method>
snapped core

> <s_phase_Alignment_Reason>


> <s_phase_Core_SMARTS>
a1aaaa1-a2aaaaa2

> <s_f3d_frozen_atoms>
12 13 17 23 11 10 25 6 7 8 9 24 37 32 33 34

> <s_m_subgroup_title>
align_ligands_6265

> <s_m_subgroupid>
align_ligands_6265

> <b_m_subgroup_collapsed>
0

$$$$
