23466
                    3D
 Schrodinger Suite 2021-2.
 29 30  0  0  1  0            999 V2000
   39.1248    9.0506   15.8916 N   0  0  0  0  0  0
   40.4657    9.5619   16.1600 C   0  0  0  0  0  0
   41.4630    8.7110   16.6820 C   0  0  0  0  0  0
   42.7421    9.2297   16.9580 C   0  0  0  0  0  0
   43.0392   10.5788   16.6795 C   0  0  0  0  0  0
   42.0517   11.4411   16.1543 C   0  0  0  0  0  0
   42.3434   12.8362   15.8198 C   0  0  0  0  0  0
   43.4380   13.7691   16.7975 S   0  0  0  0  0  0
   43.2147   15.1974   15.7986 C   0  0  0  0  0  0
   43.9691   16.3931   16.1959 C   0  0  0  0  0  0
   44.5707   16.3980   17.2924 O   0  0  0  0  0  0
   43.9914   17.3937   15.4429 O   0  5  0  0  0  0
   42.3417   14.9658   14.7694 C   0  0  0  0  0  0
   42.0097   15.8740   13.8207 O   0  0  0  0  0  0
   40.8150   16.6192   14.0466 C   0  0  0  0  0  0
   40.4946   17.4459   12.7894 C   0  0  0  0  0  0
   39.3559   17.9551   12.6780 O   0  0  0  0  0  0
   41.3934   17.5536   11.9187 O   0  5  0  0  0  0
   41.8797   13.6286   14.7999 C   0  0  0  0  0  0
   40.7101   13.0475   13.4574 Br  0  0  0  0  0  0
   40.7641   10.9175   15.9384 C   0  0  0  0  0  0
   38.9095    8.0517   16.0562 H   0  0  0  0  0  0
   38.3896    9.6869   15.5369 H   0  0  0  0  0  0
   41.2497    7.6685   16.8690 H   0  0  0  0  0  0
   43.5027    8.5925   17.3844 H   0  0  0  0  0  0
   44.0368   10.9486   16.8661 H   0  0  0  0  0  0
   39.9933   15.9341   14.2550 H   0  0  0  0  0  0
   40.9576   17.2851   14.8977 H   0  0  0  0  0  0
   39.9860   11.5850   15.5971 H   0  0  0  0  0  0
  1  2  1  0  0  0
  1 22  1  0  0  0
  1 23  1  0  0  0
  2 21  1  0  0  0
  2  3  2  0  0  0
  3  4  1  0  0  0
  3 24  1  0  0  0
  4  5  2  0  0  0
  4 25  1  0  0  0
  5  6  1  0  0  0
  5 26  1  0  0  0
  6  7  1  0  0  0
  6 21  2  0  0  0
  7 19  2  0  0  0
  7  8  1  0  0  0
  8  9  1  0  0  0
  9 10  1  0  0  0
  9 13  2  0  0  0
 10 11  2  0  0  0
 10 12  1  0  0  0
 13 14  1  0  0  0
 13 19  1  0  0  0
 14 15  1  0  0  0
 15 16  1  0  0  0
 15 27  1  0  0  0
 15 28  1  0  0  0
 16 17  2  0  0  0
 16 18  1  0  0  0
 19 20  1  0  0  0
 21 29  1  0  0  0
M  CHG  2  12  -1  18  -1
M  END
> <i_m_stars>
2

> <s_m_entry_id>
447

> <s_m_entry_name>
PTP1B_23466.1

> <r_user_dG.exp>
-7.84784627805605

> <r_m_Molecular_weight>
370.18541

> <s_m_Source_Path>
C:\Users\yujiethinkpad\Desktop\05A\PTP1B

> <s_m_Source_File>
PTP1B_23466.sdf

> <i_m_Source_File_Index>
1

> <s_m_job_name>
align_ligands_6265

> <i_phase_Input_Structure_Number>
17

> <i_phase_Structure_Number>
17

> <r_phase_Similarity_to_Reference>
0.699950412191981

> <i_phase_Reference_Structure>
1

> <s_phase_Alignment_Method>
snapped core

> <s_phase_Alignment_Reason>


> <s_phase_Core_SMARTS>
a1aaaa1-a2aaaaa2

> <s_f3d_frozen_atoms>
8 9 13 19 7 6 21 2 3 4 5 20 29 24 25 26

> <s_m_subgroup_title>
align_ligands_6265

> <s_m_subgroupid>
align_ligands_6265

> <b_m_subgroup_collapsed>
0

$$$$
