23469
                    3D
 Schrodinger Suite 2021-2.
 41 43  0  0  1  0            999 V2000
   39.3559   17.9551   12.6780 O   0  0  0  0  0  0
   40.4946   17.4459   12.7894 C   0  0  0  0  0  0
   41.3934   17.5536   11.9187 O   0  5  0  0  0  0
   40.8150   16.6192   14.0466 C   0  0  0  0  0  0
   42.0097   15.8740   13.8207 O   0  0  0  0  0  0
   42.3417   14.9658   14.7694 C   0  0  0  0  0  0
   41.8797   13.6286   14.7999 C   0  0  0  0  0  0
   40.7101   13.0475   13.4574 Br  0  0  0  0  0  0
   42.3434   12.8362   15.8198 C   0  0  0  0  0  0
   42.0517   11.4411   16.1543 C   0  0  0  0  0  0
   43.0392   10.5788   16.6795 C   0  0  0  0  0  0
   42.7421    9.2297   16.9580 C   0  0  0  0  0  0
   41.4630    8.7110   16.6820 C   0  0  0  0  0  0
   40.4657    9.5619   16.1600 C   0  0  0  0  0  0
   39.1583    9.1390   15.8639 N   0  0  0  0  0  0
   38.8119    7.7449   15.6033 C   0  0  0  0  0  0
   38.3197    6.9734   16.4265 O   0  0  0  0  0  0
   39.0657    7.3322   14.1593 C   0  0  0  0  0  0
   40.3637    7.0680   13.7077 C   0  0  0  0  0  0
   40.5826    6.6719   12.3882 C   0  0  0  0  0  0
   39.5061    6.5185   11.5178 C   0  0  0  0  0  0
   38.2104    6.7786   11.9607 C   0  0  0  0  0  0
   37.9893    7.1877   13.2763 C   0  0  0  0  0  0
   40.7641   10.9175   15.9384 C   0  0  0  0  0  0
   43.4380   13.7691   16.7975 S   0  0  0  0  0  0
   43.2147   15.1974   15.7986 C   0  0  0  0  0  0
   43.9691   16.3931   16.1959 C   0  0  0  0  0  0
   44.5707   16.3980   17.2924 O   0  0  0  0  0  0
   43.9914   17.3937   15.4429 O   0  5  0  0  0  0
   40.9369   17.2889   14.8992 H   0  0  0  0  0  0
   39.9611   15.9725   14.2561 H   0  0  0  0  0  0
   44.0358   10.9482   16.8732 H   0  0  0  0  0  0
   43.4983    8.5898   17.3885 H   0  0  0  0  0  0
   41.2785    7.6694   16.8933 H   0  0  0  0  0  0
   38.4799    9.8786   15.7566 H   0  0  0  0  0  0
   41.2109    7.1598   14.3721 H   0  0  0  0  0  0
   41.5877    6.4801   12.0422 H   0  0  0  0  0  0
   39.6742    6.1935   10.5017 H   0  0  0  0  0  0
   37.3756    6.6616   11.2854 H   0  0  0  0  0  0
   36.9814    7.3960   13.6057 H   0  0  0  0  0  0
   39.9774   11.5720   15.5918 H   0  0  0  0  0  0
  1  2  2  0  0  0
  2  3  1  0  0  0
  2  4  1  0  0  0
  4  5  1  0  0  0
  4 30  1  0  0  0
  4 31  1  0  0  0
  5  6  1  0  0  0
  6 26  2  0  0  0
  6  7  1  0  0  0
  7  8  1  0  0  0
  7  9  2  0  0  0
  9 10  1  0  0  0
  9 25  1  0  0  0
 10 24  1  0  0  0
 10 11  2  0  0  0
 11 12  1  0  0  0
 11 32  1  0  0  0
 12 13  2  0  0  0
 12 33  1  0  0  0
 13 14  1  0  0  0
 13 34  1  0  0  0
 14 15  1  0  0  0
 14 24  2  0  0  0
 15 16  1  0  0  0
 15 35  1  0  0  0
 16 17  2  0  0  0
 16 18  1  0  0  0
 18 23  1  0  0  0
 18 19  2  0  0  0
 19 20  1  0  0  0
 19 36  1  0  0  0
 20 21  2  0  0  0
 20 37  1  0  0  0
 21 22  1  0  0  0
 21 38  1  0  0  0
 22 23  2  0  0  0
 22 39  1  0  0  0
 23 40  1  0  0  0
 24 41  1  0  0  0
 25 26  1  0  0  0
 26 27  1  0  0  0
 27 28  2  0  0  0
 27 29  1  0  0  0
M  CHG  2   3  -1  29  -1
M  END
> <i_m_stars>
2

> <s_m_entry_id>
450

> <s_m_entry_name>
PTP1B_23469.1

> <r_user_dG.exp>
-7.72301857947764

> <r_m_Molecular_weight>
474.29474

> <s_m_Source_Path>
C:\Users\yujiethinkpad\Desktop\05A\PTP1B

> <s_m_Source_File>
PTP1B_23469.sdf

> <i_m_Source_File_Index>
1

> <s_m_job_name>
align_ligands_6265

> <i_phase_Input_Structure_Number>
20

> <i_phase_Structure_Number>
20

> <r_phase_Similarity_to_Reference>
0.828040308574185

> <i_phase_Reference_Structure>
1

> <s_phase_Alignment_Method>
snapped core

> <s_phase_Alignment_Reason>


> <s_phase_Core_SMARTS>
a1aaaa1-a2aaaaa2

> <s_f3d_frozen_atoms>
25 26 6 7 9 10 24 14 13 12 11 8 41 34 33 32

> <s_m_subgroup_title>
align_ligands_6265

> <s_m_subgroupid>
align_ligands_6265

> <b_m_subgroup_collapsed>
0

$$$$
