23476
                    3D
 Schrodinger Suite 2021-2.
 48 50  0  0  1  0            999 V2000
   39.3559   17.9551   12.6780 O   0  0  0  0  0  0
   40.4946   17.4459   12.7894 C   0  0  0  0  0  0
   41.3934   17.5536   11.9187 O   0  5  0  0  0  0
   40.8150   16.6192   14.0466 C   0  0  0  0  0  0
   42.0097   15.8740   13.8207 O   0  0  0  0  0  0
   42.3417   14.9658   14.7694 C   0  0  0  0  0  0
   41.8797   13.6286   14.7999 C   0  0  0  0  0  0
   40.7101   13.0475   13.4574 Br  0  0  0  0  0  0
   42.3434   12.8362   15.8198 C   0  0  0  0  0  0
   42.0517   11.4411   16.1543 C   0  0  0  0  0  0
   43.0392   10.5788   16.6795 C   0  0  0  0  0  0
   42.7421    9.2297   16.9580 C   0  0  0  0  0  0
   41.4630    8.7110   16.6820 C   0  0  0  0  0  0
   40.4657    9.5619   16.1600 C   0  0  0  0  0  0
   39.1253    9.0505   15.8890 N   0  0  0  0  0  0
   38.8099    7.6506   16.1582 C   0  0  0  0  0  0
   37.3157    7.3994   15.8717 C   0  0  0  0  0  0
   36.8667    7.8595   14.4713 C   0  0  0  0  0  0
   37.1111    6.8692   13.3131 C   0  0  0  0  0  0
   38.4114    6.0382   13.3410 C   0  0  0  0  0  0
   39.6717    6.7563   13.8607 C   0  0  0  0  0  0
   39.8005    6.7502   15.3973 C   0  0  0  0  0  0
   40.7641   10.9175   15.9384 C   0  0  0  0  0  0
   43.4380   13.7691   16.7975 S   0  0  0  0  0  0
   43.2147   15.1974   15.7986 C   0  0  0  0  0  0
   43.9691   16.3931   16.1959 C   0  0  0  0  0  0
   44.5707   16.3980   17.2924 O   0  0  0  0  0  0
   43.9914   17.3937   15.4429 O   0  5  0  0  0  0
   39.9901   15.9373   14.2530 H   0  0  0  0  0  0
   40.9544   17.2884   14.8957 H   0  0  0  0  0  0
   44.0339   10.9502   16.8788 H   0  0  0  0  0  0
   43.4975    8.5889   17.3883 H   0  0  0  0  0  0
   41.2643    7.6673   16.8779 H   0  0  0  0  0  0
   38.3987    9.6802   15.5063 H   0  0  0  0  0  0
   38.9853    7.5187   17.2274 H   0  0  0  0  0  0
   37.0595    6.3511   16.0350 H   0  0  0  0  0  0
   36.7403    7.9599   16.6107 H   0  0  0  0  0  0
   35.7997    8.0885   14.4969 H   0  0  0  0  0  0
   37.3496    8.8106   14.2389 H   0  0  0  0  0  0
   36.2712    6.1741   13.2581 H   0  0  0  0  0  0
   37.0697    7.4312   12.3782 H   0  0  0  0  0  0
   38.2483    5.1354   13.9327 H   0  0  0  0  0  0
   38.5996    5.6765   12.3284 H   0  0  0  0  0  0
   40.5442    6.2407   13.4553 H   0  0  0  0  0  0
   39.7257    7.7741   13.4702 H   0  0  0  0  0  0
   40.8127    7.0614   15.6621 H   0  0  0  0  0  0
   39.7116    5.7257   15.7635 H   0  0  0  0  0  0
   40.0019   11.5917   15.5873 H   0  0  0  0  0  0
  1  2  2  0  0  0
  2  3  1  0  0  0
  2  4  1  0  0  0
  4  5  1  0  0  0
  4 29  1  0  0  0
  4 30  1  0  0  0
  5  6  1  0  0  0
  6 25  2  0  0  0
  6  7  1  0  0  0
  7  8  1  0  0  0
  7  9  2  0  0  0
  9 10  1  0  0  0
  9 24  1  0  0  0
 10 23  1  0  0  0
 10 11  2  0  0  0
 11 12  1  0  0  0
 11 31  1  0  0  0
 12 13  2  0  0  0
 12 32  1  0  0  0
 13 14  1  0  0  0
 13 33  1  0  0  0
 14 15  1  0  0  0
 14 23  2  0  0  0
 15 16  1  0  0  0
 15 34  1  0  0  0
 16 22  1  0  0  0
 16 17  1  0  0  0
 16 35  1  0  0  0
 17 18  1  0  0  0
 17 36  1  0  0  0
 17 37  1  0  0  0
 18 19  1  0  0  0
 18 38  1  0  0  0
 18 39  1  0  0  0
 19 20  1  0  0  0
 19 40  1  0  0  0
 19 41  1  0  0  0
 20 21  1  0  0  0
 20 42  1  0  0  0
 20 43  1  0  0  0
 21 22  1  0  0  0
 21 44  1  0  0  0
 21 45  1  0  0  0
 22 46  1  0  0  0
 22 47  1  0  0  0
 23 48  1  0  0  0
 24 25  1  0  0  0
 25 26  1  0  0  0
 26 27  2  0  0  0
 26 28  1  0  0  0
M  CHG  2   3  -1  28  -1
M  END
> <i_m_stars>
2

> <s_m_entry_id>
435

> <s_m_entry_name>
PTP1B_23476.1

> <r_user_dG.exp>
-9.4138211030936

> <r_m_Molecular_weight>
466.3591

> <s_m_Source_Path>
C:\Users\yujiethinkpad\Desktop\05A\PTP1B

> <s_m_Source_File>
PTP1B_23476.sdf

> <i_m_Source_File_Index>
1

> <s_m_job_name>
align_ligands_6265

> <i_phase_Input_Structure_Number>
5

> <i_phase_Structure_Number>
5

> <r_phase_Similarity_to_Reference>
0.893049689498319

> <i_phase_Reference_Structure>
1

> <s_phase_Alignment_Method>
snapped core

> <s_phase_Alignment_Reason>


> <s_phase_Core_SMARTS>
a1aaaa1-a2aaaaa2

> <s_f3d_frozen_atoms>
24 25 6 7 9 10 23 14 13 12 11 8 48 33 32 31

> <s_m_subgroup_title>
align_ligands_6265

> <s_m_subgroupid>
align_ligands_6265

> <b_m_subgroup_collapsed>
0

$$$$
