23475
                    3D
 Schrodinger Suite 2021-2.
 42 44  0  0  1  0            999 V2000
   39.3559   17.9551   12.6780 O   0  0  0  0  0  0
   40.4946   17.4459   12.7894 C   0  0  0  0  0  0
   41.3934   17.5536   11.9187 O   0  5  0  0  0  0
   40.8150   16.6192   14.0466 C   0  0  0  0  0  0
   42.0097   15.8740   13.8207 O   0  0  0  0  0  0
   42.3417   14.9658   14.7694 C   0  0  0  0  0  0
   41.8797   13.6286   14.7999 C   0  0  0  0  0  0
   40.7101   13.0475   13.4574 Br  0  0  0  0  0  0
   42.3434   12.8362   15.8198 C   0  0  0  0  0  0
   42.0517   11.4411   16.1543 C   0  0  0  0  0  0
   43.0392   10.5788   16.6795 C   0  0  0  0  0  0
   42.7421    9.2297   16.9580 C   0  0  0  0  0  0
   41.4630    8.7110   16.6820 C   0  0  0  0  0  0
   40.4657    9.5619   16.1600 C   0  0  0  0  0  0
   39.2043    9.0096   15.8879 N   0  0  0  0  0  0
   39.0475    7.6343   15.4590 C   0  0  0  0  0  0
   39.3250    7.4596   13.9650 C   0  0  0  0  0  0
   38.4955    6.2399   13.5717 C   0  0  0  0  0  0
   37.2148    6.3774   14.3968 C   0  0  0  0  0  0
   37.6222    7.1079   15.6853 C   0  0  0  0  0  0
   40.7641   10.9175   15.9384 C   0  0  0  0  0  0
   43.4380   13.7691   16.7975 S   0  0  0  0  0  0
   43.2147   15.1974   15.7986 C   0  0  0  0  0  0
   43.9691   16.3931   16.1959 C   0  0  0  0  0  0
   44.5707   16.3980   17.2924 O   0  0  0  0  0  0
   43.9914   17.3937   15.4429 O   0  5  0  0  0  0
   39.9604   15.9916   14.3055 H   0  0  0  0  0  0
   40.9645   17.2973   14.8871 H   0  0  0  0  0  0
   44.0371   10.9472   16.8686 H   0  0  0  0  0  0
   43.4990    8.5874   17.3835 H   0  0  0  0  0  0
   41.2624    7.6666   16.8724 H   0  0  0  0  0  0
   38.3799    9.5048   16.1954 H   0  0  0  0  0  0
   39.7528    7.0342   16.0338 H   0  0  0  0  0  0
   39.0719    8.3464   13.3839 H   0  0  0  0  0  0
   40.3833    7.2520   13.8069 H   0  0  0  0  0  0
   38.2575    6.2831   12.5089 H   0  0  0  0  0  0
   39.0153    5.2997   13.7560 H   0  0  0  0  0  0
   36.4911    6.9813   13.8494 H   0  0  0  0  0  0
   36.7469    5.4130   14.5950 H   0  0  0  0  0  0
   37.5966    6.4363   16.5435 H   0  0  0  0  0  0
   36.9301    7.9232   15.8955 H   0  0  0  0  0  0
   39.9901   11.5881   15.5982 H   0  0  0  0  0  0
  1  2  2  0  0  0
  2  3  1  0  0  0
  2  4  1  0  0  0
  4  5  1  0  0  0
  4 27  1  0  0  0
  4 28  1  0  0  0
  5  6  1  0  0  0
  6 23  2  0  0  0
  6  7  1  0  0  0
  7  8  1  0  0  0
  7  9  2  0  0  0
  9 10  1  0  0  0
  9 22  1  0  0  0
 10 21  1  0  0  0
 10 11  2  0  0  0
 11 12  1  0  0  0
 11 29  1  0  0  0
 12 13  2  0  0  0
 12 30  1  0  0  0
 13 14  1  0  0  0
 13 31  1  0  0  0
 14 15  1  0  0  0
 14 21  2  0  0  0
 15 16  1  0  0  0
 15 32  1  0  0  0
 16 20  1  0  0  0
 16 17  1  0  0  0
 16 33  1  0  0  0
 17 18  1  0  0  0
 17 34  1  0  0  0
 17 35  1  0  0  0
 18 19  1  0  0  0
 18 36  1  0  0  0
 18 37  1  0  0  0
 19 20  1  0  0  0
 19 38  1  0  0  0
 19 39  1  0  0  0
 20 40  1  0  0  0
 20 41  1  0  0  0
 21 42  1  0  0  0
 22 23  1  0  0  0
 23 24  1  0  0  0
 24 25  2  0  0  0
 24 26  1  0  0  0
M  CHG  2   3  -1  26  -1
M  END
> <i_m_stars>
2

> <s_m_entry_id>
434

> <s_m_entry_name>
PTP1B_23475.1

> <r_user_dG.exp>
-8.71754822596421

> <r_m_Molecular_weight>
438.30492

> <s_m_Source_Path>
C:\Users\yujiethinkpad\Desktop\05A\PTP1B

> <s_m_Source_File>
PTP1B_23475.sdf

> <i_m_Source_File_Index>
1

> <s_m_job_name>
align_ligands_6265

> <i_phase_Input_Structure_Number>
4

> <i_phase_Structure_Number>
4

> <r_phase_Similarity_to_Reference>
0.929648873343547

> <i_phase_Reference_Structure>
1

> <s_phase_Alignment_Method>
snapped core

> <s_phase_Alignment_Reason>


> <s_phase_Core_SMARTS>
a1aaaa1-a2aaaaa2

> <s_f3d_frozen_atoms>
22 23 6 7 9 10 21 14 13 12 11 8 42 31 30 29

> <s_m_subgroup_title>
align_ligands_6265

> <s_m_subgroupid>
align_ligands_6265

> <b_m_subgroup_collapsed>
0

$$$$
