23474
                    3D
 Schrodinger Suite 2021-2.
 48 50  0  0  1  0            999 V2000
   39.3559   17.9551   12.6780 O   0  0  0  0  0  0
   40.4946   17.4459   12.7894 C   0  0  0  0  0  0
   41.3934   17.5536   11.9187 O   0  5  0  0  0  0
   40.8150   16.6192   14.0466 C   0  0  0  0  0  0
   42.0097   15.8740   13.8207 O   0  0  0  0  0  0
   42.3417   14.9658   14.7694 C   0  0  0  0  0  0
   41.8797   13.6286   14.7999 C   0  0  0  0  0  0
   40.7101   13.0475   13.4574 Br  0  0  0  0  0  0
   42.3434   12.8362   15.8198 C   0  0  0  0  0  0
   42.0517   11.4411   16.1543 C   0  0  0  0  0  0
   43.0392   10.5788   16.6795 C   0  0  0  0  0  0
   42.7421    9.2297   16.9580 C   0  0  0  0  0  0
   41.4630    8.7110   16.6820 C   0  0  0  0  0  0
   40.4657    9.5619   16.1600 C   0  0  0  0  0  0
   39.1262    9.0497   15.8861 N   0  0  0  0  0  0
   38.8117    7.6490   16.1524 C   0  0  0  0  0  0
   39.1023    6.8302   14.9297 C   0  0  0  0  0  0
   39.6770    7.7290   13.8163 C   0  0  0  0  0  0
   39.9085    6.9435   12.5097 C   0  0  0  0  0  0
   38.6328    6.2090   12.0503 C   0  0  0  0  0  0
   38.0581    5.3102   13.1637 C   0  0  0  0  0  0
   37.8266    6.0958   14.4703 C   0  0  0  0  0  0
   40.7641   10.9175   15.9384 C   0  0  0  0  0  0
   43.4380   13.7691   16.7975 S   0  0  0  0  0  0
   43.2147   15.1974   15.7986 C   0  0  0  0  0  0
   43.9691   16.3931   16.1959 C   0  0  0  0  0  0
   44.5707   16.3980   17.2924 O   0  0  0  0  0  0
   43.9914   17.3937   15.4429 O   0  5  0  0  0  0
   39.9901   15.9373   14.2530 H   0  0  0  0  0  0
   40.9544   17.2884   14.8957 H   0  0  0  0  0  0
   44.0351   10.9484   16.8765 H   0  0  0  0  0  0
   43.4979    8.5883   17.3868 H   0  0  0  0  0  0
   41.2622    7.6674   16.8762 H   0  0  0  0  0  0
   38.3996    9.6794   15.5034 H   0  0  0  0  0  0
   37.7565    7.5561   16.4095 H   0  0  0  0  0  0
   39.4208    7.2913   16.9825 H   0  0  0  0  0  0
   39.8545    6.0979   15.2292 H   0  0  0  0  0  0
   38.9893    8.5552   13.6258 H   0  0  0  0  0  0
   40.6110    8.1851   14.1488 H   0  0  0  0  0  0
   40.2550    7.6176   11.7246 H   0  0  0  0  0  0
   40.7106    6.2182   12.6597 H   0  0  0  0  0  0
   37.8806    6.9413   11.7507 H   0  0  0  0  0  0
   38.8442    5.6133   11.1607 H   0  0  0  0  0  0
   37.1241    4.8541   12.8312 H   0  0  0  0  0  0
   38.7458    4.4840   13.3541 H   0  0  0  0  0  0
   37.4801    5.4216   15.2554 H   0  0  0  0  0  0
   37.0245    6.8210   14.3203 H   0  0  0  0  0  0
   39.9981   11.5850   15.5783 H   0  0  0  0  0  0
  1  2  2  0  0  0
  2  3  1  0  0  0
  2  4  1  0  0  0
  4  5  1  0  0  0
  4 29  1  0  0  0
  4 30  1  0  0  0
  5  6  1  0  0  0
  6 25  2  0  0  0
  6  7  1  0  0  0
  7  8  1  0  0  0
  7  9  2  0  0  0
  9 10  1  0  0  0
  9 24  1  0  0  0
 10 23  1  0  0  0
 10 11  2  0  0  0
 11 12  1  0  0  0
 11 31  1  0  0  0
 12 13  2  0  0  0
 12 32  1  0  0  0
 13 14  1  0  0  0
 13 33  1  0  0  0
 14 15  1  0  0  0
 14 23  2  0  0  0
 15 16  1  0  0  0
 15 34  1  0  0  0
 16 17  1  0  0  0
 16 35  1  0  0  0
 16 36  1  0  0  0
 17 22  1  0  0  0
 17 18  1  0  0  0
 17 37  1  0  0  0
 18 19  1  0  0  0
 18 38  1  0  0  0
 18 39  1  0  0  0
 19 20  1  0  0  0
 19 40  1  0  0  0
 19 41  1  0  0  0
 20 21  1  0  0  0
 20 42  1  0  0  0
 20 43  1  0  0  0
 21 22  1  0  0  0
 21 44  1  0  0  0
 21 45  1  0  0  0
 22 46  1  0  0  0
 22 47  1  0  0  0
 23 48  1  0  0  0
 24 25  1  0  0  0
 25 26  1  0  0  0
 26 27  2  0  0  0
 26 28  1  0  0  0
M  CHG  2   3  -1  28  -1
M  END
> <i_m_stars>
2

> <s_m_entry_id>
433

> <s_m_entry_name>
PTP1B_23474.1

> <r_user_dG.exp>
-9.11205847715563

> <r_m_Molecular_weight>
466.3591

> <s_m_Source_Path>
C:\Users\yujiethinkpad\Desktop\05A\PTP1B

> <s_m_Source_File>
PTP1B_23474.sdf

> <i_m_Source_File_Index>
1

> <s_m_job_name>
align_ligands_6265

> <i_phase_Input_Structure_Number>
3

> <i_phase_Structure_Number>
3

> <r_phase_Similarity_to_Reference>
0.881118342104014

> <i_phase_Reference_Structure>
1

> <s_phase_Alignment_Method>
snapped core

> <s_phase_Alignment_Reason>


> <s_phase_Core_SMARTS>
a1aaaa1-a2aaaaa2

> <s_f3d_frozen_atoms>
24 25 6 7 9 10 23 14 13 12 11 8 48 33 32 31

> <s_m_subgroup_title>
align_ligands_6265

> <s_m_subgroupid>
align_ligands_6265

> <b_m_subgroup_collapsed>
0

$$$$
