23477
                    3D
 Schrodinger Suite 2021-2.
 43 45  0  0  1  0            999 V2000
   39.3559   17.9551   12.6780 O   0  0  0  0  0  0
   40.4946   17.4459   12.7894 C   0  0  0  0  0  0
   41.3934   17.5536   11.9187 O   0  5  0  0  0  0
   40.8150   16.6192   14.0466 C   0  0  0  0  0  0
   42.0097   15.8740   13.8207 O   0  0  0  0  0  0
   42.3417   14.9658   14.7694 C   0  0  0  0  0  0
   41.8797   13.6286   14.7999 C   0  0  0  0  0  0
   40.7101   13.0475   13.4574 Br  0  0  0  0  0  0
   42.3434   12.8362   15.8198 C   0  0  0  0  0  0
   42.0517   11.4411   16.1543 C   0  0  0  0  0  0
   43.0392   10.5788   16.6795 C   0  0  0  0  0  0
   42.7421    9.2297   16.9580 C   0  0  0  0  0  0
   41.4630    8.7110   16.6820 C   0  0  0  0  0  0
   40.4657    9.5619   16.1600 C   0  0  0  0  0  0
   39.1687    9.1312   15.8451 N   0  0  0  0  0  0
   38.9105    7.7543   15.4257 C   0  0  0  0  0  0
   39.5979    7.4262   14.0768 C   0  0  0  0  0  0
   39.2331    6.0217   13.5573 C   0  0  0  0  0  0
   37.7095    5.8387   13.4539 O   0  0  0  0  0  0
   37.0148    6.1372   14.7948 C   0  0  0  0  0  0
   37.3806    7.5367   15.3272 C   0  0  0  0  0  0
   40.7641   10.9175   15.9384 C   0  0  0  0  0  0
   43.4380   13.7691   16.7975 S   0  0  0  0  0  0
   43.2147   15.1974   15.7986 C   0  0  0  0  0  0
   43.9691   16.3931   16.1959 C   0  0  0  0  0  0
   44.5707   16.3980   17.2924 O   0  0  0  0  0  0
   43.9914   17.3937   15.4429 O   0  5  0  0  0  0
   39.9604   15.9915   14.3049 H   0  0  0  0  0  0
   40.9642   17.2968   14.8875 H   0  0  0  0  0  0
   44.0375   10.9465   16.8676 H   0  0  0  0  0  0
   43.4996    8.5872   17.3821 H   0  0  0  0  0  0
   41.2628    7.6664   16.8718 H   0  0  0  0  0  0
   38.3875    9.7162   16.1051 H   0  0  0  0  0  0
   39.3369    7.1082   16.1929 H   0  0  0  0  0  0
   39.3070    8.1604   13.3256 H   0  0  0  0  0  0
   40.6808    7.4998   14.1777 H   0  0  0  0  0  0
   39.6619    5.8662   12.5673 H   0  0  0  0  0  0
   39.6454    5.2483   14.2053 H   0  0  0  0  0  0
   35.9352    6.0795   14.6560 H   0  0  0  0  0  0
   37.2794    5.3795   15.5323 H   0  0  0  0  0  0
   36.9158    7.6789   16.3029 H   0  0  0  0  0  0
   36.9430    8.2835   14.6646 H   0  0  0  0  0  0
   39.9930   11.5888   15.5935 H   0  0  0  0  0  0
  1  2  2  0  0  0
  2  3  1  0  0  0
  2  4  1  0  0  0
  4  5  1  0  0  0
  4 28  1  0  0  0
  4 29  1  0  0  0
  5  6  1  0  0  0
  6 24  2  0  0  0
  6  7  1  0  0  0
  7  8  1  0  0  0
  7  9  2  0  0  0
  9 10  1  0  0  0
  9 23  1  0  0  0
 10 22  1  0  0  0
 10 11  2  0  0  0
 11 12  1  0  0  0
 11 30  1  0  0  0
 12 13  2  0  0  0
 12 31  1  0  0  0
 13 14  1  0  0  0
 13 32  1  0  0  0
 14 15  1  0  0  0
 14 22  2  0  0  0
 15 16  1  0  0  0
 15 33  1  0  0  0
 16 21  1  0  0  0
 16 17  1  0  0  0
 16 34  1  0  0  0
 17 18  1  0  0  0
 17 35  1  0  0  0
 17 36  1  0  0  0
 18 19  1  0  0  0
 18 37  1  0  0  0
 18 38  1  0  0  0
 19 20  1  0  0  0
 20 21  1  0  0  0
 20 39  1  0  0  0
 20 40  1  0  0  0
 21 41  1  0  0  0
 21 42  1  0  0  0
 22 43  1  0  0  0
 23 24  1  0  0  0
 24 25  1  0  0  0
 25 26  2  0  0  0
 25 27  1  0  0  0
M  CHG  2   3  -1  27  -1
M  END
> <i_m_stars>
2

> <s_m_entry_id>
436

> <s_m_entry_name>
PTP1B_23477.1

> <r_user_dG.exp>
-8.85316590670652

> <r_m_Molecular_weight>
454.30432

> <s_m_Source_Path>
C:\Users\yujiethinkpad\Desktop\05A\PTP1B

> <s_m_Source_File>
PTP1B_23477.sdf

> <i_m_Source_File_Index>
1

> <s_m_job_name>
align_ligands_6265

> <i_phase_Input_Structure_Number>
6

> <i_phase_Structure_Number>
6

> <r_phase_Similarity_to_Reference>
0.946112346531411

> <i_phase_Reference_Structure>
1

> <s_phase_Alignment_Method>
snapped core

> <s_phase_Alignment_Reason>


> <s_phase_Core_SMARTS>
a1aaaa1-a2aa(aaa2)AA3AAAAA3

> <s_f3d_frozen_atoms>
23 24 6 7 9 10 22 14 13 12 11 15 16 21 20 19 18 17 8 43 32 31 30 33 34 41 42 39 40 37 38 35 36

> <s_m_subgroup_title>
align_ligands_6265

> <s_m_subgroupid>
align_ligands_6265

> <b_m_subgroup_collapsed>
0

$$$$
