23483
                    3D
 Schrodinger Suite 2021-2.
 57 60  0  0  1  0            999 V2000
   39.3559   17.9551   12.6780 O   0  0  0  0  0  0
   40.4946   17.4459   12.7894 C   0  0  0  0  0  0
   41.3934   17.5536   11.9187 O   0  5  0  0  0  0
   40.8150   16.6192   14.0466 C   0  0  0  0  0  0
   42.0097   15.8740   13.8207 O   0  0  0  0  0  0
   42.3417   14.9658   14.7694 C   0  0  0  0  0  0
   41.8797   13.6286   14.7999 C   0  0  0  0  0  0
   40.7101   13.0475   13.4574 Br  0  0  0  0  0  0
   42.3434   12.8362   15.8198 C   0  0  0  0  0  0
   42.0517   11.4411   16.1543 C   0  0  0  0  0  0
   43.0392   10.5788   16.6795 C   0  0  0  0  0  0
   42.7421    9.2297   16.9580 C   0  0  0  0  0  0
   41.4630    8.7110   16.6820 C   0  0  0  0  0  0
   40.4657    9.5619   16.1600 C   0  0  0  0  0  0
   39.1687    9.1312   15.8451 N   0  0  0  0  0  0
   38.9105    7.7543   15.4257 C   0  0  0  0  0  0
   37.3806    7.5367   15.3272 C   0  0  0  0  0  0
   37.0148    6.1372   14.7948 C   0  0  0  0  0  0
   37.7095    5.8387   13.4539 N   0  0  3  0  0  0
   36.9119    5.6813   12.1933 S   0  0  0  0  0  0
   35.6259    6.3723   12.3751 O   0  0  0  0  0  0
   37.7903    6.0229   11.0638 O   0  0  0  0  0  0
   36.6351    3.9160   12.1361 C   0  0  0  0  0  0
   37.7414    3.0488   12.0389 C   0  0  0  0  0  0
   37.5335    1.6559   12.0120 C   0  0  0  0  0  0
   36.2251    1.1369   12.0842 C   0  0  0  0  0  0
   35.1222    2.0088   12.1847 C   0  0  0  0  0  0
   35.3250    3.4026   12.2137 C   0  0  0  0  0  0
   39.2331    6.0217   13.5573 C   0  0  0  0  0  0
   39.5979    7.4262   14.0768 C   0  0  0  0  0  0
   40.7641   10.9175   15.9384 C   0  0  0  0  0  0
   43.4380   13.7691   16.7975 S   0  0  0  0  0  0
   43.2147   15.1974   15.7986 C   0  0  0  0  0  0
   43.9691   16.3931   16.1959 C   0  0  0  0  0  0
   44.5707   16.3980   17.2924 O   0  0  0  0  0  0
   43.9914   17.3937   15.4429 O   0  5  0  0  0  0
   39.9552   15.9996   14.3102 H   0  0  0  0  0  0
   40.9686   17.3068   14.8783 H   0  0  0  0  0  0
   44.0370   10.9467   16.8696 H   0  0  0  0  0  0
   43.4986    8.5884   17.3856 H   0  0  0  0  0  0
   41.2650    7.6666   16.8751 H   0  0  0  0  0  0
   38.4159    9.7942   15.9621 H   0  0  0  0  0  0
   39.3281    7.1160   16.2043 H   0  0  0  0  0  0
   36.9169    7.6906   16.3016 H   0  0  0  0  0  0
   36.9518    8.2912   14.6677 H   0  0  0  0  0  0
   37.3058    5.3600   15.5016 H   0  0  0  0  0  0
   35.9346    6.0455   14.6807 H   0  0  0  0  0  0
   38.7426    3.4504   11.9847 H   0  0  0  0  0  0
   38.3771    0.9858   11.9354 H   0  0  0  0  0  0
   36.0668    0.0687   12.0617 H   0  0  0  0  0  0
   34.1201    1.6095   12.2377 H   0  0  0  0  0  0
   34.4782    4.0691   12.2865 H   0  0  0  0  0  0
   39.6147    5.2416   14.2159 H   0  0  0  0  0  0
   39.6906    5.8397   12.5849 H   0  0  0  0  0  0
   39.3058    8.1686   13.3343 H   0  0  0  0  0  0
   40.6799    7.5113   14.1775 H   0  0  0  0  0  0
   40.0060   11.6014   15.6009 H   0  0  0  0  0  0
  1  2  2  0  0  0
  2  3  1  0  0  0
  2  4  1  0  0  0
  4  5  1  0  0  0
  4 37  1  0  0  0
  4 38  1  0  0  0
  5  6  1  0  0  0
  6 33  2  0  0  0
  6  7  1  0  0  0
  7  8  1  0  0  0
  7  9  2  0  0  0
  9 10  1  0  0  0
  9 32  1  0  0  0
 10 31  1  0  0  0
 10 11  2  0  0  0
 11 12  1  0  0  0
 11 39  1  0  0  0
 12 13  2  0  0  0
 12 40  1  0  0  0
 13 14  1  0  0  0
 13 41  1  0  0  0
 14 15  1  0  0  0
 14 31  2  0  0  0
 15 16  1  0  0  0
 15 42  1  0  0  0
 16 30  1  0  0  0
 16 17  1  0  0  0
 16 43  1  0  0  0
 17 18  1  0  0  0
 17 44  1  0  0  0
 17 45  1  0  0  0
 18 19  1  0  0  0
 18 46  1  0  0  0
 18 47  1  0  0  0
 19 20  1  0  0  0
 19 29  1  0  0  0
 20 21  2  0  0  0
 20 22  2  0  0  0
 20 23  1  0  0  0
 23 28  1  0  0  0
 23 24  2  0  0  0
 24 25  1  0  0  0
 24 48  1  0  0  0
 25 26  2  0  0  0
 25 49  1  0  0  0
 26 27  1  0  0  0
 26 50  1  0  0  0
 27 28  2  0  0  0
 27 51  1  0  0  0
 28 52  1  0  0  0
 29 30  1  0  0  0
 29 53  1  0  0  0
 29 54  1  0  0  0
 30 55  1  0  0  0
 30 56  1  0  0  0
 31 57  1  0  0  0
 32 33  1  0  0  0
 33 34  1  0  0  0
 34 35  2  0  0  0
 34 36  1  0  0  0
M  CHG  2   3  -1  36  -1
M  END
> <i_m_stars>
2

> <s_m_entry_id>
440

> <s_m_entry_name>
PTP1B_23483.1

> <r_user_dG.exp>
-9.8746881466035

> <r_m_Molecular_weight>
593.48117

> <s_m_Source_Path>
C:\Users\yujiethinkpad\Desktop\05A\PTP1B

> <s_m_Source_File>
PTP1B_23483.sdf

> <i_m_Source_File_Index>
1

> <s_m_job_name>
align_ligands_6265

> <i_phase_Input_Structure_Number>
10

> <i_phase_Structure_Number>
10

> <r_phase_Similarity_to_Reference>
0.743140179412377

> <i_phase_Reference_Structure>
1

> <s_phase_Alignment_Method>
snapped core

> <s_phase_Alignment_Reason>


> <s_phase_Core_SMARTS>
a1aaaa1-a2aa(aaa2)AA3AAAAA3

> <s_f3d_frozen_atoms>
32 33 6 7 9 10 31 14 13 12 11 15 16 17 18 19 29 30 8 57 41 40 39 42 43 44 45 46 47 53 54 55 56

> <s_m_subgroup_title>
align_ligands_6265

> <s_m_subgroupid>
align_ligands_6265

> <b_m_subgroup_collapsed>
0

$$$$
