23482
                    3D
 Schrodinger Suite 2021-2.
 50 52  0  0  1  0            999 V2000
   36.7052    7.4126   11.6099 C   0  0  0  0  0  0
   36.9118    5.6814   12.1933 S   0  0  0  0  0  0
   37.7270    4.9410   11.2189 O   0  0  0  0  0  0
   35.5810    5.1783   12.5663 O   0  0  0  0  0  0
   37.7095    5.8387   13.4539 N   0  0  3  0  0  0
   39.2331    6.0217   13.5573 C   0  0  0  0  0  0
   39.5979    7.4262   14.0768 C   0  0  0  0  0  0
   38.9105    7.7543   15.4257 C   0  0  0  0  0  0
   39.1687    9.1312   15.8451 N   0  0  0  0  0  0
   40.4657    9.5619   16.1600 C   0  0  0  0  0  0
   41.4630    8.7110   16.6820 C   0  0  0  0  0  0
   42.7421    9.2297   16.9580 C   0  0  0  0  0  0
   43.0392   10.5788   16.6795 C   0  0  0  0  0  0
   42.0517   11.4411   16.1543 C   0  0  0  0  0  0
   42.3434   12.8362   15.8198 C   0  0  0  0  0  0
   43.4380   13.7691   16.7975 S   0  0  0  0  0  0
   43.2147   15.1974   15.7986 C   0  0  0  0  0  0
   43.9691   16.3931   16.1959 C   0  0  0  0  0  0
   44.5707   16.3980   17.2924 O   0  0  0  0  0  0
   43.9914   17.3937   15.4429 O   0  5  0  0  0  0
   42.3417   14.9658   14.7694 C   0  0  0  0  0  0
   42.0097   15.8740   13.8207 O   0  0  0  0  0  0
   40.8150   16.6192   14.0466 C   0  0  0  0  0  0
   40.4946   17.4459   12.7894 C   0  0  0  0  0  0
   39.3559   17.9551   12.6780 O   0  0  0  0  0  0
   41.3934   17.5536   11.9187 O   0  5  0  0  0  0
   41.8797   13.6286   14.7999 C   0  0  0  0  0  0
   40.7101   13.0475   13.4574 Br  0  0  0  0  0  0
   40.7641   10.9175   15.9384 C   0  0  0  0  0  0
   37.3806    7.5367   15.3272 C   0  0  0  0  0  0
   37.0148    6.1372   14.7948 C   0  0  0  0  0  0
   37.6709    7.8323   11.3330 H   0  0  0  0  0  0
   36.0515    7.4194   10.7382 H   0  0  0  0  0  0
   36.2570    8.0112   12.4023 H   0  0  0  0  0  0
   39.6147    5.2417   14.2160 H   0  0  0  0  0  0
   39.6908    5.8396   12.5850 H   0  0  0  0  0  0
   40.6794    7.5146   14.1806 H   0  0  0  0  0  0
   39.3051    8.1716   13.3374 H   0  0  0  0  0  0
   39.3263    7.1272   16.2143 H   0  0  0  0  0  0
   38.3664    9.7439   15.8864 H   0  0  0  0  0  0
   41.2801    7.6688   16.8787 H   0  0  0  0  0  0
   43.5011    8.5905   17.3842 H   0  0  0  0  0  0
   44.0362   10.9508   16.8660 H   0  0  0  0  0  0
   39.9775   15.9740   14.3175 H   0  0  0  0  0  0
   40.9805   17.2815   14.8967 H   0  0  0  0  0  0
   39.9832   11.5821   15.5972 H   0  0  0  0  0  0
   36.9168    7.6906   16.3014 H   0  0  0  0  0  0
   36.9518    8.2912   14.6675 H   0  0  0  0  0  0
   35.9354    6.0422   14.6771 H   0  0  0  0  0  0
   37.3066    5.3571   15.4980 H   0  0  0  0  0  0
  1  2  1  0  0  0
  1 32  1  0  0  0
  1 33  1  0  0  0
  1 34  1  0  0  0
  2  3  2  0  0  0
  2  4  2  0  0  0
  2  5  1  0  0  0
  5 31  1  0  0  0
  5  6  1  0  0  0
  6  7  1  0  0  0
  6 35  1  0  0  0
  6 36  1  0  0  0
  7  8  1  0  0  0
  7 37  1  0  0  0
  7 38  1  0  0  0
  8  9  1  0  0  0
  8 30  1  0  0  0
  8 39  1  0  0  0
  9 10  1  0  0  0
  9 40  1  0  0  0
 10 29  1  0  0  0
 10 11  2  0  0  0
 11 12  1  0  0  0
 11 41  1  0  0  0
 12 13  2  0  0  0
 12 42  1  0  0  0
 13 14  1  0  0  0
 13 43  1  0  0  0
 14 15  1  0  0  0
 14 29  2  0  0  0
 15 27  2  0  0  0
 15 16  1  0  0  0
 16 17  1  0  0  0
 17 18  1  0  0  0
 17 21  2  0  0  0
 18 19  2  0  0  0
 18 20  1  0  0  0
 21 22  1  0  0  0
 21 27  1  0  0  0
 22 23  1  0  0  0
 23 24  1  0  0  0
 23 44  1  0  0  0
 23 45  1  0  0  0
 24 25  2  0  0  0
 24 26  1  0  0  0
 27 28  1  0  0  0
 29 46  1  0  0  0
 30 31  1  0  0  0
 30 47  1  0  0  0
 30 48  1  0  0  0
 31 49  1  0  0  0
 31 50  1  0  0  0
M  CHG  2  20  -1  26  -1
M  END
> <i_m_stars>
2

> <s_m_entry_id>
439

> <s_m_entry_name>
PTP1B_23482.1

> <r_user_dG.exp>
-10.0065068747035

> <r_m_Molecular_weight>
531.40948

> <s_m_Source_Path>
C:\Users\yujiethinkpad\Desktop\05A\PTP1B

> <s_m_Source_File>
PTP1B_23482.sdf

> <i_m_Source_File_Index>
1

> <s_m_job_name>
align_ligands_6265

> <i_phase_Input_Structure_Number>
9

> <i_phase_Structure_Number>
9

> <r_phase_Similarity_to_Reference>
0.912764310747633

> <i_phase_Reference_Structure>
1

> <s_phase_Alignment_Method>
snapped core

> <s_phase_Alignment_Reason>


> <s_phase_Core_SMARTS>
a1aaaa1-a2aa(aaa2)AA3AAAAA3

> <s_f3d_frozen_atoms>
16 17 21 27 15 14 29 10 11 12 13 9 8 30 31 5 6 7 28 46 41 42 43 40 39 47 48 49 50 35 36 37 38

> <s_m_subgroup_title>
align_ligands_6265

> <s_m_subgroupid>
align_ligands_6265

> <b_m_subgroup_collapsed>
0

$$$$
