23485
                    3D
 Schrodinger Suite 2021-2.
 63 66  0  0  1  0            999 V2000
   40.9187   13.1360   13.7588 C   0  0  0  0  0  0
   41.8797   13.6286   14.7999 C   0  0  0  0  0  0
   42.3417   14.9658   14.7694 C   0  0  0  0  0  0
   42.0097   15.8740   13.8207 O   0  0  0  0  0  0
   40.8150   16.6192   14.0466 C   0  0  0  0  0  0
   40.4946   17.4459   12.7894 C   0  0  0  0  0  0
   39.3559   17.9551   12.6780 O   0  0  0  0  0  0
   41.3934   17.5536   11.9187 O   0  5  0  0  0  0
   43.2147   15.1974   15.7986 C   0  0  0  0  0  0
   43.9691   16.3931   16.1959 C   0  0  0  0  0  0
   44.5707   16.3980   17.2924 O   0  0  0  0  0  0
   43.9914   17.3937   15.4429 O   0  5  0  0  0  0
   43.4380   13.7691   16.7975 S   0  0  0  0  0  0
   42.3434   12.8362   15.8198 C   0  0  0  0  0  0
   42.0517   11.4411   16.1543 C   0  0  0  0  0  0
   43.0392   10.5788   16.6795 C   0  0  0  0  0  0
   42.7421    9.2297   16.9580 C   0  0  0  0  0  0
   41.4630    8.7110   16.6820 C   0  0  0  0  0  0
   40.4657    9.5619   16.1600 C   0  0  0  0  0  0
   39.1687    9.1312   15.8451 N   0  0  0  0  0  0
   38.9105    7.7543   15.4257 C   0  0  0  0  0  0
   37.3806    7.5367   15.3272 C   0  0  0  0  0  0
   37.0148    6.1372   14.7948 C   0  0  0  0  0  0
   37.7095    5.8387   13.4539 N   0  0  2  0  0  0
   37.3197    4.2349   12.9029 S   0  0  0  0  0  0
   35.8872    4.2094   12.5879 O   0  0  0  0  0  0
   37.9179    3.2837   13.8461 O   0  0  0  0  0  0
   38.2114    4.1045   11.3679 C   0  0  0  0  0  0
   37.7369    5.1677   10.4222 C   0  0  0  0  0  0
   37.2663    6.3782   10.9170 C   0  0  0  0  0  0
   36.8266    7.3634   10.0407 C   0  0  0  0  0  0
   36.8575    7.1380    8.6696 C   0  0  0  0  0  0
   37.3281    5.9275    8.1748 C   0  0  0  0  0  0
   37.7678    4.9424    9.0511 C   0  0  0  0  0  0
   39.2331    6.0217   13.5573 C   0  0  0  0  0  0
   39.5979    7.4262   14.0768 C   0  0  0  0  0  0
   40.7641   10.9175   15.9384 C   0  0  0  0  0  0
   40.6979   13.9413   13.0582 H   0  0  0  0  0  0
   41.3632   12.2984   13.2213 H   0  0  0  0  0  0
   39.9967   12.8105   14.2405 H   0  0  0  0  0  0
   39.9933   15.9341   14.2550 H   0  0  0  0  0  0
   40.9576   17.2851   14.8977 H   0  0  0  0  0  0
   44.0340   10.9501   16.8772 H   0  0  0  0  0  0
   43.4980    8.5880   17.3862 H   0  0  0  0  0  0
   41.2657    7.6666   16.8762 H   0  0  0  0  0  0
   38.4349    9.8251   15.8628 H   0  0  0  0  0  0
   39.3281    7.1160   16.2043 H   0  0  0  0  0  0
   36.9169    7.6906   16.3016 H   0  0  0  0  0  0
   36.9518    8.2912   14.6677 H   0  0  0  0  0  0
   37.3058    5.3600   15.5016 H   0  0  0  0  0  0
   35.9346    6.0455   14.6807 H   0  0  0  0  0  0
   39.2774    4.2340   11.5548 H   0  0  0  0  0  0
   38.0362    3.1226   10.9282 H   0  0  0  0  0  0
   37.2422    6.5537   11.9845 H   0  0  0  0  0  0
   36.4602    8.3058   10.4260 H   0  0  0  0  0  0
   36.5152    7.9050    7.9874 H   0  0  0  0  0  0
   37.3522    5.7520    7.1074 H   0  0  0  0  0  0
   38.1342    3.9999    8.6658 H   0  0  0  0  0  0
   39.6147    5.2416   14.2159 H   0  0  0  0  0  0
   39.6906    5.8397   12.5849 H   0  0  0  0  0  0
   39.3058    8.1686   13.3343 H   0  0  0  0  0  0
   40.6799    7.5113   14.1775 H   0  0  0  0  0  0
   40.0054   11.5935   15.5863 H   0  0  0  0  0  0
  1  2  1  0  0  0
  1 38  1  0  0  0
  1 39  1  0  0  0
  1 40  1  0  0  0
  2 14  2  0  0  0
  2  3  1  0  0  0
  3  4  1  0  0  0
  3  9  2  0  0  0
  4  5  1  0  0  0
  5  6  1  0  0  0
  5 41  1  0  0  0
  5 42  1  0  0  0
  6  7  2  0  0  0
  6  8  1  0  0  0
  9 10  1  0  0  0
  9 13  1  0  0  0
 10 11  2  0  0  0
 10 12  1  0  0  0
 13 14  1  0  0  0
 14 15  1  0  0  0
 15 37  1  0  0  0
 15 16  2  0  0  0
 16 17  1  0  0  0
 16 43  1  0  0  0
 17 18  2  0  0  0
 17 44  1  0  0  0
 18 19  1  0  0  0
 18 45  1  0  0  0
 19 20  1  0  0  0
 19 37  2  0  0  0
 20 21  1  0  0  0
 20 46  1  0  0  0
 21 36  1  0  0  0
 21 22  1  0  0  0
 21 47  1  0  0  0
 22 23  1  0  0  0
 22 48  1  0  0  0
 22 49  1  0  0  0
 23 24  1  0  0  0
 23 50  1  0  0  0
 23 51  1  0  0  0
 24 25  1  0  0  0
 24 35  1  0  0  0
 25 26  2  0  0  0
 25 27  2  0  0  0
 25 28  1  0  0  0
 28 29  1  0  0  0
 28 52  1  0  0  0
 28 53  1  0  0  0
 29 34  1  0  0  0
 29 30  2  0  0  0
 30 31  1  0  0  0
 30 54  1  0  0  0
 31 32  2  0  0  0
 31 55  1  0  0  0
 32 33  1  0  0  0
 32 56  1  0  0  0
 33 34  2  0  0  0
 33 57  1  0  0  0
 34 58  1  0  0  0
 35 36  1  0  0  0
 35 59  1  0  0  0
 35 60  1  0  0  0
 36 61  1  0  0  0
 36 62  1  0  0  0
 37 63  1  0  0  0
M  CHG  2   8  -1  12  -1
M  END
> <i_m_stars>
2

> <s_m_entry_id>
442

> <s_m_entry_name>
PTP1B_23485.1

> <r_user_dG.exp>
-11.0135614094467

> <r_m_Molecular_weight>
542.63432

> <s_m_Source_Path>
C:\Users\yujiethinkpad\Desktop\05A\PTP1B

> <s_m_Source_File>
PTP1B_23485.sdf

> <i_m_Source_File_Index>
1

> <s_m_job_name>
align_ligands_6265

> <i_phase_Input_Structure_Number>
12

> <i_phase_Structure_Number>
12

> <r_phase_Similarity_to_Reference>
0.682500315775278

> <i_phase_Reference_Structure>
1

> <s_phase_Alignment_Method>
snapped core

> <s_phase_Alignment_Reason>


> <s_phase_Core_SMARTS>
a1aaaa1-a2aa(aaa2)AA3AAAAA3

> <s_f3d_frozen_atoms>
13 9 3 2 14 15 37 19 18 17 16 20 21 22 23 24 35 36 63 45 44 43 46 47 48 49 50 51 59 60 61 62

> <s_m_subgroup_title>
align_ligands_6265

> <s_m_subgroupid>
align_ligands_6265

> <b_m_subgroup_collapsed>
0

$$$$
