23480
                    3D
 Schrodinger Suite 2021-2.
 50 52  0  0  1  0            999 V2000
   36.2578    2.6295   13.4292 C   0  0  0  0  0  0
   36.5552    3.8977   13.8847 O   0  0  0  0  0  0
   37.3828    4.4937   12.9892 C   0  0  0  0  0  0
   37.7686    3.9459   11.9627 O   0  0  0  0  0  0
   37.7095    5.8387   13.4539 N   0  0  0  0  0  0
   39.2331    6.0217   13.5573 C   0  0  0  0  0  0
   39.5979    7.4262   14.0768 C   0  0  0  0  0  0
   38.9105    7.7543   15.4257 C   0  0  0  0  0  0
   39.1687    9.1312   15.8451 N   0  0  0  0  0  0
   40.4657    9.5619   16.1600 C   0  0  0  0  0  0
   41.4630    8.7110   16.6820 C   0  0  0  0  0  0
   42.7421    9.2297   16.9580 C   0  0  0  0  0  0
   43.0392   10.5788   16.6795 C   0  0  0  0  0  0
   42.0517   11.4411   16.1543 C   0  0  0  0  0  0
   42.3434   12.8362   15.8198 C   0  0  0  0  0  0
   43.4380   13.7691   16.7975 S   0  0  0  0  0  0
   43.2147   15.1974   15.7986 C   0  0  0  0  0  0
   43.9691   16.3931   16.1959 C   0  0  0  0  0  0
   44.5707   16.3980   17.2924 O   0  0  0  0  0  0
   43.9914   17.3937   15.4429 O   0  5  0  0  0  0
   42.3417   14.9658   14.7694 C   0  0  0  0  0  0
   42.0097   15.8740   13.8207 O   0  0  0  0  0  0
   40.8150   16.6192   14.0466 C   0  0  0  0  0  0
   40.4946   17.4459   12.7894 C   0  0  0  0  0  0
   39.3559   17.9551   12.6780 O   0  0  0  0  0  0
   41.3934   17.5536   11.9187 O   0  5  0  0  0  0
   41.8797   13.6286   14.7999 C   0  0  0  0  0  0
   40.7101   13.0475   13.4574 Br  0  0  0  0  0  0
   40.7641   10.9175   15.9384 C   0  0  0  0  0  0
   37.3806    7.5367   15.3272 C   0  0  0  0  0  0
   37.0148    6.1372   14.7948 C   0  0  0  0  0  0
   35.5928    2.1356   14.1378 H   0  0  0  0  0  0
   35.7677    2.6978   12.4580 H   0  0  0  0  0  0
   37.1779    2.0532   13.3321 H   0  0  0  0  0  0
   39.6927    5.2723   14.2017 H   0  0  0  0  0  0
   39.6651    5.8728   12.5677 H   0  0  0  0  0  0
   40.6784    7.4984   14.2023 H   0  0  0  0  0  0
   39.3254    8.1795   13.3376 H   0  0  0  0  0  0
   39.3270    7.1236   16.2110 H   0  0  0  0  0  0
   38.3669    9.7436   15.8979 H   0  0  0  0  0  0
   41.2773    7.6683   16.8780 H   0  0  0  0  0  0
   43.5006    8.5918   17.3871 H   0  0  0  0  0  0
   44.0329   10.9536   16.8769 H   0  0  0  0  0  0
   39.9933   15.9341   14.2550 H   0  0  0  0  0  0
   40.9576   17.2851   14.8977 H   0  0  0  0  0  0
   39.9862   11.5797   15.5860 H   0  0  0  0  0  0
   36.9296    7.6682   16.3108 H   0  0  0  0  0  0
   36.9362    8.2960   14.6836 H   0  0  0  0  0  0
   35.9298    6.0598   14.7238 H   0  0  0  0  0  0
   37.3226    5.3804   15.5164 H   0  0  0  0  0  0
  1  2  1  0  0  0
  1 32  1  0  0  0
  1 33  1  0  0  0
  1 34  1  0  0  0
  2  3  1  0  0  0
  3  4  2  0  0  0
  3  5  1  0  0  0
  5 31  1  0  0  0
  5  6  1  0  0  0
  6  7  1  0  0  0
  6 35  1  0  0  0
  6 36  1  0  0  0
  7  8  1  0  0  0
  7 37  1  0  0  0
  7 38  1  0  0  0
  8  9  1  0  0  0
  8 30  1  0  0  0
  8 39  1  0  0  0
  9 10  1  0  0  0
  9 40  1  0  0  0
 10 29  1  0  0  0
 10 11  2  0  0  0
 11 12  1  0  0  0
 11 41  1  0  0  0
 12 13  2  0  0  0
 12 42  1  0  0  0
 13 14  1  0  0  0
 13 43  1  0  0  0
 14 15  1  0  0  0
 14 29  2  0  0  0
 15 27  2  0  0  0
 15 16  1  0  0  0
 16 17  1  0  0  0
 17 18  1  0  0  0
 17 21  2  0  0  0
 18 19  2  0  0  0
 18 20  1  0  0  0
 21 22  1  0  0  0
 21 27  1  0  0  0
 22 23  1  0  0  0
 23 24  1  0  0  0
 23 44  1  0  0  0
 23 45  1  0  0  0
 24 25  2  0  0  0
 24 26  1  0  0  0
 27 28  1  0  0  0
 29 46  1  0  0  0
 30 31  1  0  0  0
 30 47  1  0  0  0
 30 48  1  0  0  0
 31 49  1  0  0  0
 31 50  1  0  0  0
M  CHG  2  20  -1  26  -1
M  END
> <i_m_stars>
2

> <s_m_entry_id>
438

> <s_m_entry_name>
PTP1B_23480.1

> <r_user_dG.exp>
-8.71754822596421

> <r_m_Molecular_weight>
511.35663

> <s_m_Source_Path>
C:\Users\yujiethinkpad\Desktop\05A\PTP1B

> <s_m_Source_File>
PTP1B_23480.sdf

> <i_m_Source_File_Index>
1

> <s_m_job_name>
align_ligands_6265

> <i_phase_Input_Structure_Number>
8

> <i_phase_Structure_Number>
8

> <r_phase_Similarity_to_Reference>
0.909780366546806

> <i_phase_Reference_Structure>
1

> <s_phase_Alignment_Method>
snapped core

> <s_phase_Alignment_Reason>


> <s_phase_Core_SMARTS>
a1aaaa1-a2aa(aaa2)AA3AAAAA3

> <s_f3d_frozen_atoms>
16 17 21 27 15 14 29 10 11 12 13 9 8 30 31 5 6 7 28 46 41 42 43 40 39 47 48 49 50 35 36 37 38

> <s_m_subgroup_title>
align_ligands_6265

> <s_m_subgroupid>
align_ligands_6265

> <b_m_subgroup_collapsed>
0

$$$$
