@<TRIPOS>MOLECULE
/home/yujie/leadopt/data/result/selection/FGFR2/lig_3.sdf:1
26   28    1
SMALL
USER_CHARGES


@<TRIPOS>ATOM
      1 O1         34.6025   -6.5298  122.0905 O.3       1 UNK         0.0000 
      2 C2         34.2266   -5.7567  123.1506 C.ar      1 UNK         0.0000 
      3 C3         33.2906   -4.7471  122.9626 C.ar      1 UNK         0.0000 
      4 C4         32.8948   -3.9698  124.0451 C.ar      1 UNK         0.0000 
      5 C5         34.7694   -6.0026  124.4075 C.ar      1 UNK         0.0000 
      6 C6         34.3602   -5.2339  125.4914 C.ar      1 UNK         0.0000 
      7 C7         33.4214   -4.2079  125.3213 C.ar      1 UNK         0.0000 
      8 C8         32.9971   -3.3754  126.4772 C.ar      1 UNK         0.0000 
      9 C9         31.6478   -3.0271  126.6375 C.ar      1 UNK         0.0000 
     10 C10        31.2101   -2.2242  127.6895 C.ar      1 UNK         0.0000 
     11 C11        32.1654   -1.7298  128.5843 C.ar      1 UNK         0.0000 
     12 C12        33.5237   -2.0958  128.4251 C.ar      1 UNK         0.0000 
     13 N13        34.2025   -1.4212  129.4170 N.pl3     1 UNK         0.0000 
     14 N14        33.3726   -0.6892  130.1778 N.2       1 UNK         0.0000 
     15 C15        32.1643   -0.8657  129.7162 C.ar      1 UNK         0.0000 
     16 C16        33.9582   -2.9298  127.3955 C.ar      1 UNK         0.0000 
     17 H17        35.3351   -7.1416  122.3025 H         1 UNK         0.0000 
     18 H18        32.8776   -4.5658  121.9805 H         1 UNK         0.0000 
     19 H19        32.1777   -3.1775  123.8857 H         1 UNK         0.0000 
     20 H20        35.4942   -6.7932  124.5454 H         1 UNK         0.0000 
     21 H21        34.7745   -5.4424  126.4671 H         1 UNK         0.0000 
     22 H22        30.9150   -3.3931  125.9325 H         1 UNK         0.0000 
     23 H23        30.1659   -1.9664  127.7907 H         1 UNK         0.0000 
     24 H24        35.2007   -1.4302  129.6065 H         1 UNK         0.0000 
     25 H25        31.3198   -0.3668  130.1682 H         1 UNK         0.0000 
     26 H26        35.0034   -3.1750  127.2800 H         1 UNK         0.0000 
@<TRIPOS>BOND
     1    1    2 1    
     2    1   17 1    
     3    2    3 ar   
     4    2    5 ar   
     5    3    4 ar   
     6    3   18 1    
     7    4    7 ar   
     8    4   19 1    
     9    5    6 ar   
    10    5   20 1    
    11    6    7 ar   
    12    6   21 1    
    13    7    8 1    
    14    8   16 ar   
    15    8    9 ar   
    16    9   10 ar   
    17    9   22 1    
    18   10   11 ar   
    19   10   23 1    
    20   11   15 ar   
    21   11   12 ar   
    22   12   13 ar   
    23   12   16 ar   
    24   13   14 ar   
    25   13   24 1    
    26   14   15 ar   
    27   15   25 1    
    28   16   26 1    
@<TRIPOS>SUBSTRUCTURE
     1 UNK         1 GROUP             0       ****    0 ROOT    
