@<TRIPOS>MOLECULE
/home/yujie/leadopt/data/result/selection/FGFR2/lig_18.sdf:1
37   40    1
SMALL
USER_CHARGES


@<TRIPOS>ATOM
      1 O1         34.6025   -6.5298  122.0805 O.3       1 UNK         0.0000 
      2 C2         34.2207   -5.7637  123.1434 C.ar      1 UNK         0.0000 
      3 C3         33.2651   -4.7714  122.9626 C.ar      1 UNK         0.0000 
      4 C4         32.8651   -3.9983  124.0459 C.ar      1 UNK         0.0000 
      5 C5         34.7775   -5.9990  124.3961 C.ar      1 UNK         0.0000 
      6 C6         34.3646   -5.2348  125.4816 C.ar      1 UNK         0.0000 
      7 C7         33.4081   -4.2243  125.3167 C.ar      1 UNK         0.0000 
      8 C8         32.9831   -3.3938  126.4726 C.ar      1 UNK         0.0000 
      9 C9         31.6316   -3.0708  126.6518 C.ar      1 UNK         0.0000 
     10 C10        31.1950   -2.2751  127.7096 C.ar      1 UNK         0.0000 
     11 C11        32.1500   -1.7481  128.5936 C.ar      1 UNK         0.0000 
     12 C12        33.5109   -2.1065  128.4115 C.ar      1 UNK         0.0000 
     13 N13        34.2025   -1.4423  129.3941 N.pl3     1 UNK         0.0000 
     14 N14        33.3837   -0.7196  130.1673 N.2       1 UNK         0.0000 
     15 C15        32.1554   -0.8667  129.7308 C.ar      1 UNK         0.0000 
     16 C16        31.0192   -0.1298  130.3812 C.ar      1 UNK         0.0000 
     17 C17        29.8511    0.1653  129.6689 C.ar      1 UNK         0.0000 
     18 C18        28.8168    0.8772  130.2720 C.ar      1 UNK         0.0000 
     19 C19        28.9543    1.3183  131.5843 C.ar      1 UNK         0.0000 
     20 O20        27.9697    2.0815  132.1485 O.3       1 UNK         0.0000 
     21 C21        30.0936    1.0055  132.3177 C.ar      1 UNK         0.0000 
     22 C22        31.1143    0.2702  131.7217 C.ar      1 UNK         0.0000 
     23 C23        33.9465   -2.9305  127.3763 C.ar      1 UNK         0.0000 
     24 H24        35.3373   -7.1393  122.2912 H         1 UNK         0.0000 
     25 H25        32.8413   -4.5987  121.9834 H         1 UNK         0.0000 
     26 H26        32.1336   -3.2184  123.8911 H         1 UNK         0.0000 
     27 H27        35.5167   -6.7768  124.5293 H         1 UNK         0.0000 
     28 H28        34.7908   -5.4339  126.4541 H         1 UNK         0.0000 
     29 H29        30.8951   -3.4572  125.9616 H         1 UNK         0.0000 
     30 H30        30.1431   -2.0643  127.8220 H         1 UNK         0.0000 
     31 H31        35.2026   -1.4545  129.5727 H         1 UNK         0.0000 
     32 H32        29.7464   -0.1146  128.6336 H         1 UNK         0.0000 
     33 H33        27.9269    1.1207  129.7108 H         1 UNK         0.0000 
     34 H34        28.2535    2.5064  132.9626 H         1 UNK         0.0000 
     35 H35        30.1991    1.3356  133.3408 H         1 UNK         0.0000 
     36 H36        31.9964    0.0428  132.3013 H         1 UNK         0.0000 
     37 H37        34.9943   -3.1608  127.2501 H         1 UNK         0.0000 
@<TRIPOS>BOND
     1    1    2 1    
     2    1   24 1    
     3    2    3 ar   
     4    2    5 ar   
     5    3    4 ar   
     6    3   25 1    
     7    4    7 ar   
     8    4   26 1    
     9    5    6 ar   
    10    5   27 1    
    11    6    7 ar   
    12    6   28 1    
    13    7    8 1    
    14    8   23 ar   
    15    8    9 ar   
    16    9   10 ar   
    17    9   29 1    
    18   10   11 ar   
    19   10   30 1    
    20   11   15 ar   
    21   11   12 ar   
    22   12   13 ar   
    23   12   23 ar   
    24   13   14 ar   
    25   13   31 1    
    26   14   15 ar   
    27   15   16 1    
    28   16   22 ar   
    29   16   17 ar   
    30   17   18 ar   
    31   17   32 1    
    32   18   19 ar   
    33   18   33 1    
    34   19   20 1    
    35   19   21 ar   
    36   20   34 1    
    37   21   22 ar   
    38   21   35 1    
    39   22   36 1    
    40   23   37 1    
@<TRIPOS>SUBSTRUCTURE
     1 UNK         1 GROUP             0       ****    0 ROOT    
