/home/yujie/leadopt/data/result/selection/FGFR2/lig_41.sdf:1
                    3D
 Schrodinger Suite 2020-3.
 50 54  0  0  1  0            999 V2000
   34.6025   -6.5298  122.0943 O   0  0  0  0  0  0
   34.2228   -5.7623  123.1550 C   0  0  0  0  0  0
   34.7287   -6.0275  124.4236 C   0  0  0  0  0  0
   34.3122   -5.2577  125.5070 C   0  0  0  0  0  0
   33.3169   -4.7277  122.9626 C   0  0  0  0  0  0
   32.9174   -3.9418  124.0387 C   0  0  0  0  0  0
   32.0647   -2.9158  123.8082 F   0  0  0  0  0  0
   33.4025   -4.2046  125.3318 C   0  0  0  0  0  0
   32.9779   -3.3864  126.4969 C   0  0  0  0  0  0
   31.6262   -3.0701  126.6835 C   0  0  0  0  0  0
   31.1922   -2.2701  127.7378 C   0  0  0  0  0  0
   32.1508   -1.7298  128.6085 C   0  0  0  0  0  0
   33.5107   -2.0912  128.4283 C   0  0  0  0  0  0
   34.2025   -1.4121  129.4010 N   0  0  0  0  0  0
   33.3864   -0.6744  130.1626 N   0  0  0  0  0  0
   32.1582   -0.8339  129.7325 C   0  0  0  0  0  0
   31.0159   -0.1113  130.3820 C   0  0  0  0  0  0
   31.0997    0.2702  131.7253 C   0  0  0  0  0  0
   30.0365    0.9127  132.3472 C   0  0  0  0  0  0
   28.8589    1.1920  131.6446 C   0  0  0  0  0  0
   27.7891    1.8426  132.2540 N   0  0  0  0  0  0
   27.6734    1.9358  133.7212 C   0  0  0  0  0  0
   26.2760    2.3531  134.2316 C   0  0  0  0  0  0
   25.8045    3.5717  133.5887 N   0  0  0  0  0  0
   25.8035    3.4250  132.1399 C   0  0  0  0  0  0
   27.1952    3.0246  131.6017 C   0  0  0  0  0  0
   28.7758    0.8047  130.3022 C   0  0  0  0  0  0
   29.8418    0.1636  129.6767 C   0  0  0  0  0  0
   33.9429   -2.9298  127.4019 C   0  0  0  0  0  0
   35.3319   -7.1451  122.3100 H   0  0  0  0  0  0
   35.4320   -6.8357  124.5707 H   0  0  0  0  0  0
   34.6996   -5.4866  126.4895 H   0  0  0  0  0  0
   32.9308   -4.5298  121.9732 H   0  0  0  0  0  0
   30.8883   -3.4580  125.9956 H   0  0  0  0  0  0
   30.1404   -2.0598  127.8524 H   0  0  0  0  0  0
   35.2031   -1.4205  129.5773 H   0  0  0  0  0  0
   31.9917    0.0688  132.2994 H   0  0  0  0  0  0
   30.1497    1.2027  133.3802 H   0  0  0  0  0  0
   27.9260    0.9732  134.1677 H   0  0  0  0  0  0
   28.3936    2.6702  134.0841 H   0  0  0  0  0  0
   26.3221    2.5194  135.3083 H   0  0  0  0  0  0
   25.5636    1.5458  134.0536 H   0  0  0  0  0  0
   26.3029    4.3947  133.8992 H   0  0  0  0  0  0
   25.5039    4.3727  131.6911 H   0  0  0  0  0  0
   25.0665    2.6751  131.8478 H   0  0  0  0  0  0
   27.8666    3.8701  131.7626 H   0  0  0  0  0  0
   27.1161    2.8819  130.5248 H   0  0  0  0  0  0
   27.8775    0.9918  129.7335 H   0  0  0  0  0  0
   29.7470   -0.0960  128.6350 H   0  0  0  0  0  0
   34.9901   -3.1619  127.2733 H   0  0  0  0  0  0
  1  2  1  0  0  0
  1 30  1  0  0  0
  2  3  1  0  0  0
  2  5  2  0  0  0
  3  4  2  0  0  0
  3 31  1  0  0  0
  4  8  1  0  0  0
  4 32  1  0  0  0
  5  6  1  0  0  0
  5 33  1  0  0  0
  6  7  1  0  0  0
  6  8  2  0  0  0
  8  9  1  0  0  0
  9 29  1  0  0  0
  9 10  2  0  0  0
 10 11  1  0  0  0
 10 34  1  0  0  0
 11 12  2  0  0  0
 11 35  1  0  0  0
 12 16  1  0  0  0
 12 13  1  0  0  0
 13 14  1  0  0  0
 13 29  2  0  0  0
 14 15  1  0  0  0
 14 36  1  0  0  0
 15 16  2  0  0  0
 16 17  1  0  0  0
 17 28  1  0  0  0
 17 18  2  0  0  0
 18 19  1  0  0  0
 18 37  1  0  0  0
 19 20  2  0  0  0
 19 38  1  0  0  0
 20 21  1  0  0  0
 20 27  1  0  0  0
 21 26  1  0  0  0
 21 22  1  0  0  0
 22 23  1  0  0  0
 22 39  1  0  0  0
 22 40  1  0  0  0
 23 24  1  0  0  0
 23 41  1  0  0  0
 23 42  1  0  0  0
 24 25  1  0  0  0
 24 43  1  0  0  0
 25 26  1  0  0  0
 25 44  1  0  0  0
 25 45  1  0  0  0
 26 46  1  0  0  0
 26 47  1  0  0  0
 27 28  2  0  0  0
 27 48  1  0  0  0
 28 49  1  0  0  0
 29 50  1  0  0  0
M  END
> <s_m_source_file>
/home/yujie/leadopt/data/result/selection/FGFR2/lig_41.sdf

> <i_m_source_file_index>
1

> <i_lp_mmshare_version>
51139

> <i_f3d_flags>
0

> <s_epik_input>
W09IXWMxW2NIXVtjSF1jKGMoRilbY0hdMSktYyhbY0hdW2NIXTIpW2NIXWMoYzIzKVtuSF1uYzMtYzRbY0hdW2NIXWMoW2NIXVtjSF00KU41W0NIMl1bQ0gyXVtOSF1bQ0gyXVtDSDJdNQ==

> <s_epik_cmdline>
J2VwaWtfcHl0aG9uJywgJy1waHQnLCAnMi4wJywgJy1waCcsICc3LjAnLCAnLXRuJywgJzgnLCAnLW1hJywgJzIwMCcsICctaW1hZScsICc8aW5maWxlLm1hZT4nLCAnLW9tYWUnLCAnPG91dGZpbGUubWFlPic=

> <r_lp_tautomer_probability>
0.980392

> <r_epik_Ionization_Penalty>
  2.5201

> <r_epik_Ionization_Penalty_Charging>
  0.0000

> <r_epik_Ionization_Penalty_Neutral>
  2.5201

> <r_epik_State_Penalty>
  2.6889

> <r_epik_Charging_Adjusted_Penalty>
2.68888

> <i_epik_Tot_Q>
0

> <i_epik_Tot_abs_Q>
0

> <s_lp_Force_Field>
OPLS3e

> <r_lp_Energy>
46.0001

> <b_lp_Chiralities_Consistent>
1

> <s_lp_Variant>
/home/yujie/leadopt/data/result/selection/FGFR2/lig_41.sdf:1-3

> <s_i_glide_gridfile>
glide-grid_FGFR2

> <i_i_glide_lignum>
3

> <i_i_glide_rotatable_bonds>
4

> <r_i_docking_score>
-7.17537141377185

> <r_i_glide_ligand_efficiency>
-0.247426600474891

> <r_i_glide_ligand_efficiency_sa>
-0.760172906908016

> <r_i_glide_ligand_efficiency_ln>
-1.64297810203392

> <r_i_glide_gscore>
-9.86425141377185

> <r_i_glide_lipo>
-4.02669541028697

> <r_i_glide_hbond>
-0.66664006718486

> <r_i_glide_metal>
-0

> <r_i_glide_rewards>
-1.8757650605548

> <r_i_glide_evdw>
-42.3790588378906

> <r_i_glide_ecoul>
-9.64917659759521

> <r_i_glide_erotb>
0.271178555788593

> <r_i_glide_esite>
0

> <r_i_glide_emodel>
-84.8034592073333

> <r_i_glide_energy>
-52.0282354354858

> <r_i_glide_einternal>
0.22038346529007

> <i_i_glide_confnum>
174

> <i_i_glide_posenum>
351

> <r_i_glide_eff_state_penalty>
2.68888

$$$$
