@<TRIPOS>MOLECULE
/home/yujie/leadopt/data/result/selection/FGFR2/lig_34.sdf:1
40   43    1
SMALL
USER_CHARGES


@<TRIPOS>ATOM
      1 O1         29.8024    0.2824  128.5559 O.2       1 UNK         0.0000 
      2 C2         30.0165    0.2702  129.7690 C.2       1 UNK         0.0000 
      3 C3         28.9902    0.8312  130.7246 C.ar      1 UNK         0.0000 
      4 C4         29.3616    1.3803  131.9633 C.ar      1 UNK         0.0000 
      5 C5         28.3908    1.8692  132.8325 C.ar      1 UNK         0.0000 
      6 C6         27.0487    1.8271  132.4672 C.ar      1 UNK         0.0000 
      7 C7         26.6663    1.2987  131.2377 C.ar      1 UNK         0.0000 
      8 C8         27.6343    0.8035  130.3688 C.ar      1 UNK         0.0000 
      9 N9         31.1333   -0.2191  130.3443 N.am      1 UNK         0.0000 
     10 C10        32.1791   -0.8593  129.7037 C.ar      1 UNK         0.0000 
     11 N11        33.3932   -0.7337  130.1643 N.2       1 UNK         0.0000 
     12 N12        34.2025   -1.4572  129.3811 N.pl3     1 UNK         0.0000 
     13 C13        33.5094   -2.1123  128.3911 C.ar      1 UNK         0.0000 
     14 C14        33.9426   -2.9454  127.3626 C.ar      1 UNK         0.0000 
     15 C15        32.9793   -3.4046  126.4564 C.ar      1 UNK         0.0000 
     16 C16        33.4030   -4.2369  125.3016 C.ar      1 UNK         0.0000 
     17 C17        34.3626   -5.2451  125.4639 C.ar      1 UNK         0.0000 
     18 C18        34.7767   -6.0060  124.3765 C.ar      1 UNK         0.0000 
     19 C19        34.2172   -5.7702  123.1251 C.ar      1 UNK         0.0000 
     20 O20        34.6025   -6.5298  122.0589 O.3       1 UNK         0.0000 
     21 C21        33.2566   -4.7824  122.9480 C.ar      1 UNK         0.0000 
     22 C22        32.8565   -4.0118  124.0323 C.ar      1 UNK         0.0000 
     23 C23        31.6292   -3.0722  126.6299 C.ar      1 UNK         0.0000 
     24 C24        31.1951   -2.2672  127.6813 C.ar      1 UNK         0.0000 
     25 C25        32.1518   -1.7397  128.5629 C.ar      1 UNK         0.0000 
     26 H26        30.3971    1.4458  132.2663 H         1 UNK         0.0000 
     27 H27        28.6812    2.2894  133.7847 H         1 UNK         0.0000 
     28 H28        26.2989    2.2131  133.1421 H         1 UNK         0.0000 
     29 H29        25.6229    1.2714  130.9597 H         1 UNK         0.0000 
     30 H30        27.3207    0.3891  129.4201 H         1 UNK         0.0000 
     31 H31        31.2925    0.0321  131.3066 H         1 UNK         0.0000 
     32 H32        35.2015   -1.4865  129.5643 H         1 UNK         0.0000 
     33 H33        34.9889   -3.1855  127.2424 H         1 UNK         0.0000 
     34 H34        34.7916   -5.4439  126.4352 H         1 UNK         0.0000 
     35 H35        35.5198   -6.7809  124.5061 H         1 UNK         0.0000 
     36 H36        35.3376   -7.1391  122.2685 H         1 UNK         0.0000 
     37 H37        32.8310   -4.6094  121.9697 H         1 UNK         0.0000 
     38 H38        32.1230   -3.2334  123.8788 H         1 UNK         0.0000 
     39 H39        30.8915   -3.4538  125.9384 H         1 UNK         0.0000 
     40 H40        30.1455   -2.0386  127.7881 H         1 UNK         0.0000 
@<TRIPOS>BOND
     1    1    2 2    
     2    2    3 1    
     3    2    9 am   BACKBONE|DICT|INTERRES
     4    3    8 ar   
     5    3    4 ar   
     6    4    5 ar   
     7    4   26 1    
     8    5    6 ar   
     9    5   27 1    
    10    6    7 ar   
    11    6   28 1    
    12    7    8 ar   
    13    7   29 1    
    14    8   30 1    
    15    9   10 1    
    16    9   31 1    
    17   10   25 ar   
    18   10   11 ar   
    19   11   12 ar   
    20   12   13 ar   
    21   12   32 1    
    22   13   25 ar   
    23   13   14 ar   
    24   14   15 ar   
    25   14   33 1    
    26   15   16 1    
    27   15   23 ar   
    28   16   22 ar   
    29   16   17 ar   
    30   17   18 ar   
    31   17   34 1    
    32   18   19 ar   
    33   18   35 1    
    34   19   20 1    
    35   19   21 ar   
    36   20   36 1    
    37   21   22 ar   
    38   21   37 1    
    39   22   38 1    
    40   23   24 ar   
    41   23   39 1    
    42   24   25 ar   
    43   24   40 1    
@<TRIPOS>SUBSTRUCTURE
     1 UNK         1 GROUP             0       ****    0 ROOT    
