@<TRIPOS>MOLECULE
/home/yujie/leadopt/data/result/selection/FGFR2/lig_S5.sdf:1
48   51    1
SMALL
USER_CHARGES


@<TRIPOS>ATOM
      1 C1         30.4573   -5.6388  120.9647 C.3       1 UNK         0.0000 
      2 C2         31.1922   -4.7426  121.9665 C.3       1 UNK         0.0000 
      3 O3         32.5051   -5.2642  122.1637 O.3       1 UNK         0.0000 
      4 C4         33.1666   -5.0477  123.3573 C.ar      1 UNK         0.0000 
      5 C5         34.3405   -5.7708  123.5519 C.ar      1 UNK         0.0000 
      6 C6         35.0042   -5.7286  124.7720 C.ar      1 UNK         0.0000 
      7 F7         36.1178   -6.4664  124.9681 F         1 UNK         0.0000 
      8 C8         34.5080   -4.9396  125.8022 C.ar      1 UNK         0.0000 
      9 C9         33.3792   -4.1314  125.6261 C.ar      1 UNK         0.0000 
     10 C10        32.8816   -3.2604  126.7409 C.ar      1 UNK         0.0000 
     11 C11        31.5206   -2.9309  126.8329 C.ar      1 UNK         0.0000 
     12 C12        31.0126   -2.1091  127.8371 C.ar      1 UNK         0.0000 
     13 C13        31.8976   -1.5610  128.7797 C.ar      1 UNK         0.0000 
     14 C14        33.2648   -1.9248  128.7060 C.ar      1 UNK         0.0000 
     15 N15        33.8714   -1.2802  129.7603 N.pl3     1 UNK         0.0000 
     16 N16        33.0019   -0.5299  130.4558 N.2       1 UNK         0.0000 
     17 C17        31.8154   -0.6678  129.9077 C.ar      1 UNK         0.0000 
     18 C18        30.6142    0.0376  130.4714 C.ar      1 UNK         0.0000 
     19 C19        29.4621    0.2345  129.6983 C.ar      1 UNK         0.0000 
     20 C20        28.3028    0.7952  130.2492 C.ar      1 UNK         0.0000 
     21 C21        27.0266    0.9539  129.4326 C.3       1 UNK         0.0000 
     22 N22        26.7902   -0.1298  128.3650 N.4       1 UNK         0.0000 
     23 C23        28.3190    1.2196  131.5801 C.ar      1 UNK         0.0000 
     24 C24        29.4687    1.0697  132.3516 C.ar      1 UNK         0.0000 
     25 C25        30.6006    0.4667  131.8059 C.ar      1 UNK         0.0000 
     26 C26        33.7730   -2.7691  127.7134 C.ar      1 UNK         0.0000 
     27 C27        32.7270   -4.1879  124.3800 C.ar      1 UNK         0.0000 
     28 H28        29.4725   -5.2344  120.7306 H         1 UNK         0.0000 
     29 H29        30.3207   -6.6422  121.3658 H         1 UNK         0.0000 
     30 H30        31.0024   -5.7296  120.0284 H         1 UNK         0.0000 
     31 H31        31.2596   -3.7212  121.5911 H         1 UNK         0.0000 
     32 H32        30.6036   -4.7305  122.8861 H         1 UNK         0.0000 
     33 H33        34.7198   -6.4189  122.7745 H         1 UNK         0.0000 
     34 H34        35.0026   -4.9778  126.7567 H         1 UNK         0.0000 
     35 H35        30.8186   -3.3420  126.1220 H         1 UNK         0.0000 
     36 H36        29.9524   -1.9184  127.8707 H         1 UNK         0.0000 
     37 H37        34.8509   -1.3145  130.0147 H         1 UNK         0.0000 
     38 H38        29.4655   -0.0454  128.6593 H         1 UNK         0.0000 
     39 H39        26.1375    0.9058  130.0684 H         1 UNK         0.0000 
     40 H40        27.0205    1.9025  128.8912 H         1 UNK         0.0000 
     41 H41        25.8884   -0.0057  127.9279 H         1 UNK         0.0000 
     42 H42        27.4973   -0.0773  127.6451 H         1 UNK         0.0000 
     43 H43        27.4440    1.6748  132.0213 H         1 UNK         0.0000 
     44 H44        29.4779    1.4058  133.3771 H         1 UNK         0.0000 
     45 H45        31.4686    0.3365  132.4342 H         1 UNK         0.0000 
     46 H46        34.8280   -2.9986  127.6849 H         1 UNK         0.0000 
     47 H47        31.8646   -3.5630  124.2114 H         1 UNK         0.0000 
     48 H48        26.8056   -1.0648  128.7619 H         1 UNK         0.0000 
@<TRIPOS>BOND
     1    1    2 1    
     2    1   28 1    
     3    1   29 1    
     4    1   30 1    
     5    2    3 1    
     6    2   31 1    
     7    2   32 1    
     8    3    4 1    
     9    4   27 ar   
    10    4    5 ar   
    11    5    6 ar   
    12    5   33 1    
    13    6    7 1    
    14    6    8 ar   
    15    8    9 ar   
    16    8   34 1    
    17    9   10 1    
    18    9   27 ar   
    19   10   26 ar   
    20   10   11 ar   
    21   11   12 ar   
    22   11   35 1    
    23   12   13 ar   
    24   12   36 1    
    25   13   17 ar   
    26   13   14 ar   
    27   14   15 ar   
    28   14   26 ar   
    29   15   16 ar   
    30   15   37 1    
    31   16   17 ar   
    32   17   18 1    
    33   18   25 ar   
    34   18   19 ar   
    35   19   20 ar   
    36   19   38 1    
    37   20   21 1    
    38   20   23 ar   
    39   21   22 1    
    40   21   39 1    
    41   21   40 1    
    42   22   41 1    
    43   22   42 1    
    44   22   48 1    
    45   23   24 ar   
    46   23   43 1    
    47   24   25 ar   
    48   24   44 1    
    49   25   45 1    
    50   26   46 1    
    51   27   47 1    
@<TRIPOS>SUBSTRUCTURE
     1 UNK         1 GROUP             0       ****    0 ROOT    
