@<TRIPOS>MOLECULE
/home/yujie/leadopt/data/result/selection/FGFR2/lig_43.sdf:1
57   61    1
SMALL
USER_CHARGES


@<TRIPOS>ATOM
      1 O1         34.6022   -6.5299  122.0727 O.3       1 UNK         0.0000 
      2 C2         34.2382   -5.7592  123.1383 C.ar      1 UNK         0.0000 
      3 C3         34.8023   -5.9987  124.3873 C.ar      1 UNK         0.0000 
      4 C4         34.4007   -5.2342  125.4772 C.ar      1 UNK         0.0000 
      5 C5         33.2918   -4.7577  122.9626 C.ar      1 UNK         0.0000 
      6 C6         32.9030   -3.9852  124.0505 C.ar      1 UNK         0.0000 
      7 C7         33.4469   -4.2202  125.3197 C.ar      1 UNK         0.0000 
      8 C8         33.0166   -3.3985  126.4803 C.ar      1 UNK         0.0000 
      9 C9         31.6623   -3.0873  126.6522 C.ar      1 UNK         0.0000 
     10 C10        31.2138   -2.2923  127.7035 C.ar      1 UNK         0.0000 
     11 C11        32.1594   -1.7476  128.5863 C.ar      1 UNK         0.0000 
     12 C12        33.5240   -2.0980  128.4189 C.ar      1 UNK         0.0000 
     13 N13        34.2007   -1.4184  129.4047 N.pl3     1 UNK         0.0000 
     14 N14        33.3668   -0.6940  130.1646 N.2       1 UNK         0.0000 
     15 C15        32.1456   -0.8529  129.7124 C.ar      1 UNK         0.0000 
     16 C16        30.9864   -0.1265  130.3327 C.ar      1 UNK         0.0000 
     17 C17        31.0233    0.2701  131.6747 C.ar      1 UNK         0.0000 
     18 C18        29.9441    0.9344  132.2507 C.ar      1 UNK         0.0000 
     19 C19        28.7955    1.2205  131.5004 C.ar      1 UNK         0.0000 
     20 N20        27.7117    1.9072  132.0481 N.pl3     1 UNK         0.0000 
     21 C21        27.5511    2.0821  133.5048 C.3       1 UNK         0.0000 
     22 C22        26.1175    2.4331  133.9478 C.3       1 UNK         0.0000 
     23 N23        25.6872    3.7346  133.2426 N.4       1 UNK         0.0000 
     24 C24        24.2835    4.1713  133.7286 C.3       1 UNK         0.0000 
     25 C25        23.9408    5.5808  133.2195 C.3       1 UNK         0.0000 
     26 C26        25.7283    3.4668  131.7233 C.3       1 UNK         0.0000 
     27 C27        27.1634    3.0704  131.3221 C.3       1 UNK         0.0000 
     28 C28        28.7555    0.8012  130.1653 C.ar      1 UNK         0.0000 
     29 C29        29.8374    0.1446  129.5869 C.ar      1 UNK         0.0000 
     30 C30        33.9710   -2.9310  127.3928 C.ar      1 UNK         0.0000 
     31 H31        35.3361   -7.1426  122.2769 H         1 UNK         0.0000 
     32 H32        35.5365   -6.7826  124.5144 H         1 UNK         0.0000 
     33 H33        34.8291   -5.4394  126.4474 H         1 UNK         0.0000 
     34 H34        32.8637   -4.5806  121.9863 H         1 UNK         0.0000 
     35 H35        32.1752   -3.2012  123.9004 H         1 UNK         0.0000 
     36 H36        30.9323   -3.4822  125.9598 H         1 UNK         0.0000 
     37 H37        30.1588   -2.0938  127.8083 H         1 UNK         0.0000 
     38 H38        35.1992   -1.4221  129.5941 H         1 UNK         0.0000 
     39 H39        31.8944    0.0694  132.2799 H         1 UNK         0.0000 
     40 H40        30.0262    1.2413  133.2826 H         1 UNK         0.0000 
     41 H41        28.2065    2.8870  133.8389 H         1 UNK         0.0000 
     42 H42        27.8637    1.1743  134.0236 H         1 UNK         0.0000 
     43 H43        26.0731    2.6192  135.0225 H         1 UNK         0.0000 
     44 H44        25.4004    1.6505  133.6894 H         1 UNK         0.0000 
     45 H45        24.3353    4.1672  134.8195 H         1 UNK         0.0000 
     46 H46        23.5718    3.4101  133.4008 H         1 UNK         0.0000 
     47 H47        23.0225    5.9429  133.6821 H         1 UNK         0.0000 
     48 H48        23.7803    5.6050  132.1421 H         1 UNK         0.0000 
     49 H49        24.7279    6.2953  133.4601 H         1 UNK         0.0000 
     50 H50        25.0022    2.6828  131.4957 H         1 UNK         0.0000 
     51 H51        25.4305    4.3866  131.2193 H         1 UNK         0.0000 
     52 H52        27.1839    2.9101  130.2449 H         1 UNK         0.0000 
     53 H53        27.8178    3.9223  131.5159 H         1 UNK         0.0000 
     54 H54        27.8807    0.9813  129.5588 H         1 UNK         0.0000 
     55 H55        29.7759   -0.1253  128.5455 H         1 UNK         0.0000 
     56 H56        35.0203   -3.1563  127.2731 H         1 UNK         0.0000 
     57 H57        26.3650    4.4509  133.4689 H         1 UNK         0.0000 
@<TRIPOS>BOND
     1    1    2 1    
     2    1   31 1    
     3    2    3 ar   
     4    2    5 ar   
     5    3    4 ar   
     6    3   32 1    
     7    4    7 ar   
     8    4   33 1    
     9    5    6 ar   
    10    5   34 1    
    11    6    7 ar   
    12    6   35 1    
    13    7    8 1    
    14    8   30 ar   
    15    8    9 ar   
    16    9   10 ar   
    17    9   36 1    
    18   10   11 ar   
    19   10   37 1    
    20   11   15 ar   
    21   11   12 ar   
    22   12   13 ar   
    23   12   30 ar   
    24   13   14 ar   
    25   13   38 1    
    26   14   15 ar   
    27   15   16 1    
    28   16   29 ar   
    29   16   17 ar   
    30   17   18 ar   
    31   17   39 1    
    32   18   19 ar   
    33   18   40 1    
    34   19   20 1    
    35   19   28 ar   
    36   20   27 1    
    37   20   21 1    
    38   21   22 1    
    39   21   41 1    
    40   21   42 1    
    41   22   23 1    
    42   22   43 1    
    43   22   44 1    
    44   23   24 1    
    45   23   26 1    
    46   23   57 1    
    47   24   25 1    
    48   24   45 1    
    49   24   46 1    
    50   25   47 1    
    51   25   48 1    
    52   25   49 1    
    53   26   27 1    
    54   26   50 1    
    55   26   51 1    
    56   27   52 1    
    57   27   53 1    
    58   28   29 ar   
    59   28   54 1    
    60   29   55 1    
    61   30   56 1    
@<TRIPOS>SUBSTRUCTURE
     1 UNK         1 GROUP             0       ****    0 ROOT    
