@<TRIPOS>MOLECULE
/home/yujie/leadopt/data/result/selection/FGFR2/lig_S8.sdf:1
48   51    1
SMALL
USER_CHARGES


@<TRIPOS>ATOM
      1 C1         29.7953   -5.5437  121.7321 C.3       1 UNK         0.0000 
      2 C2         31.2730   -5.3419  121.3739 C.3       1 UNK         0.0000 
      3 O3         32.0902   -6.1545  122.2089 O.3       1 UNK         0.0000 
      4 C4         32.9666   -5.5623  123.0978 C.ar      1 UNK         0.0000 
      5 C5         34.2613   -6.0704  123.1177 C.ar      1 UNK         0.0000 
      6 C6         35.1320   -5.7298  124.1416 C.ar      1 UNK         0.0000 
      7 C7         34.7019   -4.9014  125.1713 C.ar      1 UNK         0.0000 
      8 C8         33.4161   -4.3312  125.1904 C.ar      1 UNK         0.0000 
      9 C9         32.9929   -3.4726  126.3727 C.ar      1 UNK         0.0000 
     10 C10        31.6364   -3.2340  126.6581 C.ar      1 UNK         0.0000 
     11 C11        31.2050   -2.4368  127.7170 C.ar      1 UNK         0.0000 
     12 C12        32.1574   -1.8417  128.5542 C.ar      1 UNK         0.0000 
     13 C13        33.5214   -2.1327  128.3235 C.ar      1 UNK         0.0000 
     14 N14        34.2024   -1.4709  129.3251 N.pl3     1 UNK         0.0000 
     15 N15        33.3720   -0.7794  130.1242 N.2       1 UNK         0.0000 
     16 C16        32.1498   -0.9297  129.6695 C.ar      1 UNK         0.0000 
     17 C17        30.9904   -0.1896  130.2771 C.ar      1 UNK         0.0000 
     18 C18        29.8266    0.0389  129.5309 C.ar      1 UNK         0.0000 
     19 C19        28.7259    0.6966  130.0886 C.ar      1 UNK         0.0000 
     20 C20        27.4965    0.9782  129.2449 C.3       1 UNK         0.0000 
     21 N21        26.4415   -0.1295  129.3427 N.4       1 UNK         0.0000 
     22 C22        28.7947    1.1551  131.4065 C.ar      1 UNK         0.0000 
     23 C23        29.9453    0.9404  132.1618 C.ar      1 UNK         0.0000 
     24 C24        31.0317    0.2696  131.6021 C.ar      1 UNK         0.0000 
     25 C25        33.9562   -2.9298  127.2530 C.ar      1 UNK         0.0000 
     26 C26        32.5701   -4.6475  124.0943 C.ar      1 UNK         0.0000 
     27 F27        31.3369   -4.1051  123.9933 F         1 UNK         0.0000 
     28 H28        29.1566   -4.9652  121.0656 H         1 UNK         0.0000 
     29 H29        29.5750   -5.2338  122.7508 H         1 UNK         0.0000 
     30 H30        29.5094   -6.5910  121.6386 H         1 UNK         0.0000 
     31 H31        31.4015   -5.7169  120.3592 H         1 UNK         0.0000 
     32 H32        31.5556   -4.2873  121.3686 H         1 UNK         0.0000 
     33 H33        34.5864   -6.7788  122.3675 H         1 UNK         0.0000 
     34 H34        36.1242   -6.1608  124.1628 H         1 UNK         0.0000 
     35 H35        35.4023   -4.7377  125.9702 H         1 UNK         0.0000 
     36 H36        30.8533   -3.6933  126.0807 H         1 UNK         0.0000 
     37 H37        30.1479   -2.2977  127.8803 H         1 UNK         0.0000 
     38 H38        35.2028   -1.4665  129.4999 H         1 UNK         0.0000 
     39 H39        29.7810   -0.2664  128.4981 H         1 UNK         0.0000 
     40 H40        26.9821    1.8874  129.5646 H         1 UNK         0.0000 
     41 H41        27.7300    1.0559  128.1810 H         1 UNK         0.0000 
     42 H42        25.6096    0.1217  128.8274 H         1 UNK         0.0000 
     43 H43        26.7919   -1.0018  128.9623 H         1 UNK         0.0000 
     44 H44        27.9656    1.6889  131.8500 H         1 UNK         0.0000 
     45 H45        29.9987    1.2986  133.1798 H         1 UNK         0.0000 
     46 H46        31.9113    0.1097  132.2073 H         1 UNK         0.0000 
     47 H47        35.0139   -3.0754  127.1087 H         1 UNK         0.0000 
     48 H48        26.1833   -0.2773  130.3080 H         1 UNK         0.0000 
@<TRIPOS>BOND
     1    1    2 1    
     2    1   28 1    
     3    1   29 1    
     4    1   30 1    
     5    2    3 1    
     6    2   31 1    
     7    2   32 1    
     8    3    4 1    
     9    4   26 ar   
    10    4    5 ar   
    11    5    6 ar   
    12    5   33 1    
    13    6    7 ar   
    14    6   34 1    
    15    7    8 ar   
    16    7   35 1    
    17    8    9 1    
    18    8   26 ar   
    19    9   25 ar   
    20    9   10 ar   
    21   10   11 ar   
    22   10   36 1    
    23   11   12 ar   
    24   11   37 1    
    25   12   16 ar   
    26   12   13 ar   
    27   13   14 ar   
    28   13   25 ar   
    29   14   15 ar   
    30   14   38 1    
    31   15   16 ar   
    32   16   17 1    
    33   17   24 ar   
    34   17   18 ar   
    35   18   19 ar   
    36   18   39 1    
    37   19   20 1    
    38   19   22 ar   
    39   20   21 1    
    40   20   40 1    
    41   20   41 1    
    42   21   42 1    
    43   21   43 1    
    44   21   48 1    
    45   22   23 ar   
    46   22   44 1    
    47   23   24 ar   
    48   23   45 1    
    49   24   46 1    
    50   25   47 1    
    51   26   27 1    
@<TRIPOS>SUBSTRUCTURE
     1 UNK         1 GROUP             0       ****    0 ROOT    
