/home/yujie/leadopt/data/result/selection/FGFR2/lig_S5.sdf:1
                    3D
 Schrodinger Suite 2020-3.
 48 51  0  0  1  0            999 V2000
   30.4573   -5.6388  120.9647 C   0  0  0  0  0  0
   31.1922   -4.7426  121.9665 C   0  0  0  0  0  0
   32.5051   -5.2642  122.1637 O   0  0  0  0  0  0
   33.1666   -5.0477  123.3573 C   0  0  0  0  0  0
   34.3405   -5.7708  123.5519 C   0  0  0  0  0  0
   35.0042   -5.7286  124.7720 C   0  0  0  0  0  0
   36.1178   -6.4664  124.9681 F   0  0  0  0  0  0
   34.5080   -4.9396  125.8022 C   0  0  0  0  0  0
   33.3792   -4.1314  125.6261 C   0  0  0  0  0  0
   32.8816   -3.2604  126.7409 C   0  0  0  0  0  0
   31.5206   -2.9309  126.8329 C   0  0  0  0  0  0
   31.0126   -2.1091  127.8371 C   0  0  0  0  0  0
   31.8976   -1.5610  128.7797 C   0  0  0  0  0  0
   33.2648   -1.9248  128.7060 C   0  0  0  0  0  0
   33.8714   -1.2802  129.7603 N   0  0  0  0  0  0
   33.0019   -0.5299  130.4558 N   0  0  0  0  0  0
   31.8154   -0.6678  129.9077 C   0  0  0  0  0  0
   30.6142    0.0376  130.4714 C   0  0  0  0  0  0
   29.4621    0.2345  129.6983 C   0  0  0  0  0  0
   28.3028    0.7952  130.2492 C   0  0  0  0  0  0
   27.0266    0.9539  129.4326 C   0  0  0  0  0  0
   26.7902   -0.1298  128.3650 N   0  3  0  0  0  0
   28.3190    1.2196  131.5801 C   0  0  0  0  0  0
   29.4687    1.0697  132.3516 C   0  0  0  0  0  0
   30.6006    0.4667  131.8059 C   0  0  0  0  0  0
   33.7730   -2.7691  127.7134 C   0  0  0  0  0  0
   32.7270   -4.1879  124.3800 C   0  0  0  0  0  0
   29.4725   -5.2344  120.7306 H   0  0  0  0  0  0
   30.3207   -6.6422  121.3658 H   0  0  0  0  0  0
   31.0024   -5.7296  120.0284 H   0  0  0  0  0  0
   31.2596   -3.7212  121.5911 H   0  0  0  0  0  0
   30.6036   -4.7305  122.8861 H   0  0  0  0  0  0
   34.7198   -6.4189  122.7745 H   0  0  0  0  0  0
   35.0026   -4.9778  126.7567 H   0  0  0  0  0  0
   30.8186   -3.3420  126.1220 H   0  0  0  0  0  0
   29.9524   -1.9184  127.8707 H   0  0  0  0  0  0
   34.8509   -1.3145  130.0147 H   0  0  0  0  0  0
   29.4655   -0.0454  128.6593 H   0  0  0  0  0  0
   26.1375    0.9058  130.0684 H   0  0  0  0  0  0
   27.0205    1.9025  128.8912 H   0  0  0  0  0  0
   25.8884   -0.0057  127.9279 H   0  0  0  0  0  0
   27.4973   -0.0773  127.6451 H   0  0  0  0  0  0
   27.4440    1.6748  132.0213 H   0  0  0  0  0  0
   29.4779    1.4058  133.3771 H   0  0  0  0  0  0
   31.4686    0.3365  132.4342 H   0  0  0  0  0  0
   34.8280   -2.9986  127.6849 H   0  0  0  0  0  0
   31.8646   -3.5630  124.2114 H   0  0  0  0  0  0
   26.8056   -1.0648  128.7619 H   0  0  0  0  0  0
  1  2  1  0  0  0
  1 28  1  0  0  0
  1 29  1  0  0  0
  1 30  1  0  0  0
  2  3  1  0  0  0
  2 31  1  0  0  0
  2 32  1  0  0  0
  3  4  1  0  0  0
  4 27  1  0  0  0
  4  5  2  0  0  0
  5  6  1  0  0  0
  5 33  1  0  0  0
  6  7  1  0  0  0
  6  8  2  0  0  0
  8  9  1  0  0  0
  8 34  1  0  0  0
  9 10  1  0  0  0
  9 27  2  0  0  0
 10 26  1  0  0  0
 10 11  2  0  0  0
 11 12  1  0  0  0
 11 35  1  0  0  0
 12 13  2  0  0  0
 12 36  1  0  0  0
 13 17  1  0  0  0
 13 14  1  0  0  0
 14 15  1  0  0  0
 14 26  2  0  0  0
 15 16  1  0  0  0
 15 37  1  0  0  0
 16 17  2  0  0  0
 17 18  1  0  0  0
 18 25  1  0  0  0
 18 19  2  0  0  0
 19 20  1  0  0  0
 19 38  1  0  0  0
 20 21  1  0  0  0
 20 23  2  0  0  0
 21 22  1  0  0  0
 21 39  1  0  0  0
 21 40  1  0  0  0
 22 41  1  0  0  0
 22 42  1  0  0  0
 22 48  1  0  0  0
 23 24  1  0  0  0
 23 43  1  0  0  0
 24 25  2  0  0  0
 24 44  1  0  0  0
 25 45  1  0  0  0
 26 46  1  0  0  0
 27 47  1  0  0  0
M  CHG  1  22   1
M  END
> <s_m_source_file>
/home/yujie/leadopt/data/result/selection/FGFR2/lig_S5.sdf

> <i_m_source_file_index>
1

> <i_lp_mmshare_version>
51139

> <i_f3d_flags>
0

> <s_epik_input>
W0NIM11bQ0gyXU9jMVtjSF1jKEYpW2NIXWMoW2NIXTEpLWMoW2NIXVtjSF0yKVtjSF1jKGMyMylbbkhdbmMzLWM0W2NIXWMoW0NIMl1bTkgyXSlbY0hdW2NIXVtjSF00

> <s_epik_cmdline>
J2VwaWtfcHl0aG9uJywgJy1waHQnLCAnMi4wJywgJy1waCcsICc3LjAnLCAnLXRuJywgJzgnLCAnLW1hJywgJzIwMCcsICctaW1hZScsICc8aW5maWxlLm1hZT4nLCAnLW9tYWUnLCAnPG91dGZpbGUubWFlPic=

> <r_lp_tautomer_probability>
0.980392

> <r_epik_Ionization_Penalty>
  0.0285

> <r_epik_Ionization_Penalty_Charging>
  0.0285

> <r_epik_Ionization_Penalty_Neutral>
  0.0000

> <r_epik_State_Penalty>
  0.0325

> <r_epik_Charging_Adjusted_Penalty>
0.0610643

> <i_epik_Tot_Q>
1

> <i_epik_Tot_abs_Q>
1

> <s_lp_Force_Field>
OPLS3e

> <r_lp_Energy>
37.9033

> <b_lp_Chiralities_Consistent>
1

> <s_lp_Variant>
/home/yujie/leadopt/data/result/selection/FGFR2/lig_S5.sdf:1-1

> <s_i_glide_gridfile>
glide-grid_FGFR2

> <i_i_glide_lignum>
1

> <i_i_glide_rotatable_bonds>
5

> <r_i_docking_score>
-9.20395519011402

> <r_i_glide_ligand_efficiency>
-0.340887229263482

> <r_i_glide_ligand_efficiency_sa>
-1.02266168666694

> <r_i_glide_ligand_efficiency_ln>
-2.14252902919818

> <r_i_glide_gscore>
-9.23648949011402

> <r_i_glide_lipo>
-4.12157213672369

> <r_i_glide_hbond>
-0.529981647386225

> <r_i_glide_metal>
-0

> <r_i_glide_rewards>
-1.92688243866663

> <r_i_glide_evdw>
-41.0473556518555

> <r_i_glide_ecoul>
-5.24940013885498

> <r_i_glide_erotb>
0.306998689640605

> <r_i_glide_esite>
-0.12527415355706

> <r_i_glide_emodel>
-70.8302062952955

> <r_i_glide_energy>
-46.2967557907104

> <r_i_glide_einternal>
7.55850124359131

> <i_i_glide_confnum>
35

> <i_i_glide_posenum>
128

> <r_i_glide_eff_state_penalty>
0.0325343

$$$$
