/home/yujie/leadopt/data/result/selection/FGFR2/lig_43.sdf:1
                    3D
 Schrodinger Suite 2020-3.
 57 61  0  0  1  0            999 V2000
   34.6022   -6.5299  122.0727 O   0  0  0  0  0  0
   34.2382   -5.7592  123.1383 C   0  0  0  0  0  0
   34.8023   -5.9987  124.3873 C   0  0  0  0  0  0
   34.4007   -5.2342  125.4772 C   0  0  0  0  0  0
   33.2918   -4.7577  122.9626 C   0  0  0  0  0  0
   32.9030   -3.9852  124.0505 C   0  0  0  0  0  0
   33.4469   -4.2202  125.3197 C   0  0  0  0  0  0
   33.0166   -3.3985  126.4803 C   0  0  0  0  0  0
   31.6623   -3.0873  126.6522 C   0  0  0  0  0  0
   31.2138   -2.2923  127.7035 C   0  0  0  0  0  0
   32.1594   -1.7476  128.5863 C   0  0  0  0  0  0
   33.5240   -2.0980  128.4189 C   0  0  0  0  0  0
   34.2007   -1.4184  129.4047 N   0  0  0  0  0  0
   33.3668   -0.6940  130.1646 N   0  0  0  0  0  0
   32.1456   -0.8529  129.7124 C   0  0  0  0  0  0
   30.9864   -0.1265  130.3327 C   0  0  0  0  0  0
   31.0233    0.2701  131.6747 C   0  0  0  0  0  0
   29.9441    0.9344  132.2507 C   0  0  0  0  0  0
   28.7955    1.2205  131.5004 C   0  0  0  0  0  0
   27.7117    1.9072  132.0481 N   0  0  0  0  0  0
   27.5511    2.0821  133.5048 C   0  0  0  0  0  0
   26.1175    2.4331  133.9478 C   0  0  0  0  0  0
   25.6872    3.7346  133.2426 N   0  3  0  0  0  0
   24.2835    4.1713  133.7286 C   0  0  0  0  0  0
   23.9408    5.5808  133.2195 C   0  0  0  0  0  0
   25.7283    3.4668  131.7233 C   0  0  0  0  0  0
   27.1634    3.0704  131.3221 C   0  0  0  0  0  0
   28.7555    0.8012  130.1653 C   0  0  0  0  0  0
   29.8374    0.1446  129.5869 C   0  0  0  0  0  0
   33.9710   -2.9310  127.3928 C   0  0  0  0  0  0
   35.3361   -7.1426  122.2769 H   0  0  0  0  0  0
   35.5365   -6.7826  124.5144 H   0  0  0  0  0  0
   34.8291   -5.4394  126.4474 H   0  0  0  0  0  0
   32.8637   -4.5806  121.9863 H   0  0  0  0  0  0
   32.1752   -3.2012  123.9004 H   0  0  0  0  0  0
   30.9323   -3.4822  125.9598 H   0  0  0  0  0  0
   30.1588   -2.0938  127.8083 H   0  0  0  0  0  0
   35.1992   -1.4221  129.5941 H   0  0  0  0  0  0
   31.8944    0.0694  132.2799 H   0  0  0  0  0  0
   30.0262    1.2413  133.2826 H   0  0  0  0  0  0
   28.2065    2.8870  133.8389 H   0  0  0  0  0  0
   27.8637    1.1743  134.0236 H   0  0  0  0  0  0
   26.0731    2.6192  135.0225 H   0  0  0  0  0  0
   25.4004    1.6505  133.6894 H   0  0  0  0  0  0
   24.3353    4.1672  134.8195 H   0  0  0  0  0  0
   23.5718    3.4101  133.4008 H   0  0  0  0  0  0
   23.0225    5.9429  133.6821 H   0  0  0  0  0  0
   23.7803    5.6050  132.1421 H   0  0  0  0  0  0
   24.7279    6.2953  133.4601 H   0  0  0  0  0  0
   25.0022    2.6828  131.4957 H   0  0  0  0  0  0
   25.4305    4.3866  131.2193 H   0  0  0  0  0  0
   27.1839    2.9101  130.2449 H   0  0  0  0  0  0
   27.8178    3.9223  131.5159 H   0  0  0  0  0  0
   27.8807    0.9813  129.5588 H   0  0  0  0  0  0
   29.7759   -0.1253  128.5455 H   0  0  0  0  0  0
   35.0203   -3.1563  127.2731 H   0  0  0  0  0  0
   26.3650    4.4509  133.4689 H   0  0  0  0  0  0
  1  2  1  0  0  0
  1 31  1  0  0  0
  2  3  1  0  0  0
  2  5  2  0  0  0
  3  4  2  0  0  0
  3 32  1  0  0  0
  4  7  1  0  0  0
  4 33  1  0  0  0
  5  6  1  0  0  0
  5 34  1  0  0  0
  6  7  2  0  0  0
  6 35  1  0  0  0
  7  8  1  0  0  0
  8 30  1  0  0  0
  8  9  2  0  0  0
  9 10  1  0  0  0
  9 36  1  0  0  0
 10 11  2  0  0  0
 10 37  1  0  0  0
 11 15  1  0  0  0
 11 12  1  0  0  0
 12 13  1  0  0  0
 12 30  2  0  0  0
 13 14  1  0  0  0
 13 38  1  0  0  0
 14 15  2  0  0  0
 15 16  1  0  0  0
 16 29  1  0  0  0
 16 17  2  0  0  0
 17 18  1  0  0  0
 17 39  1  0  0  0
 18 19  2  0  0  0
 18 40  1  0  0  0
 19 20  1  0  0  0
 19 28  1  0  0  0
 20 27  1  0  0  0
 20 21  1  0  0  0
 21 22  1  0  0  0
 21 41  1  0  0  0
 21 42  1  0  0  0
 22 23  1  0  0  0
 22 43  1  0  0  0
 22 44  1  0  0  0
 23 24  1  0  0  0
 23 26  1  0  0  0
 23 57  1  0  0  0
 24 25  1  0  0  0
 24 45  1  0  0  0
 24 46  1  0  0  0
 25 47  1  0  0  0
 25 48  1  0  0  0
 25 49  1  0  0  0
 26 27  1  0  0  0
 26 50  1  0  0  0
 26 51  1  0  0  0
 27 52  1  0  0  0
 27 53  1  0  0  0
 28 29  2  0  0  0
 28 54  1  0  0  0
 29 55  1  0  0  0
 30 56  1  0  0  0
M  CHG  1  23   1
M  END
> <s_m_source_file>
/home/yujie/leadopt/data/result/selection/FGFR2/lig_43.sdf

> <i_m_source_file_index>
1

> <i_lp_mmshare_version>
51139

> <i_f3d_flags>
0

> <s_epik_input>
W09IXWMxW2NIXVtjSF1jKFtjSF1bY0hdMSktYyhbY0hdW2NIXTIpW2NIXWMoYzIzKVtuSF1uYzMtYzRbY0hdW2NIXWMoW2NIXVtjSF00KU41W0NIMl1bQ0gyXU4oW0NIMl1bQ0gzXSlbQ0gyXVtDSDJdNQ==

> <s_epik_cmdline>
J2VwaWtfcHl0aG9uJywgJy1waHQnLCAnMi4wJywgJy1waCcsICc3LjAnLCAnLXRuJywgJzgnLCAnLW1hJywgJzIwMCcsICctaW1hZScsICc8aW5maWxlLm1hZT4nLCAnLW9tYWUnLCAnPG91dGZpbGUubWFlPic=

> <r_lp_tautomer_probability>
0.980392

> <r_epik_Ionization_Penalty>
  0.1095

> <r_epik_Ionization_Penalty_Charging>
  0.1084

> <r_epik_Ionization_Penalty_Neutral>
  0.0011

> <r_epik_State_Penalty>
  0.1058

> <r_epik_Charging_Adjusted_Penalty>
0.214187

> <i_epik_Tot_Q>
1

> <i_epik_Tot_abs_Q>
1

> <s_lp_Force_Field>
OPLS3e

> <r_lp_Energy>
54.4706

> <b_lp_Chiralities_Consistent>
1

> <s_lp_Variant>
/home/yujie/leadopt/data/result/selection/FGFR2/lig_43.sdf:1-1

> <s_i_glide_gridfile>
glide-grid_FGFR2

> <i_i_glide_lignum>
1

> <i_i_glide_rotatable_bonds>
5

> <r_i_docking_score>
-9.66749161050333

> <r_i_glide_ligand_efficiency>
-0.322249720350111

> <r_i_glide_ligand_efficiency_sa>
-1.00130480497119

> <r_i_glide_ligand_efficiency_ln>
-2.19655942966418

> <r_i_glide_gscore>
-9.77332161050333

> <r_i_glide_lipo>
-4.09024948614999

> <r_i_glide_hbond>
-0.658330641631792

> <r_i_glide_metal>
-0

> <r_i_glide_rewards>
-1.64465158097777

> <r_i_glide_evdw>
-40.5899772644043

> <r_i_glide_ecoul>
-10.707389831543

> <r_i_glide_erotb>
0.25782040962784

> <r_i_glide_esite>
-0.00230297341995148

> <r_i_glide_emodel>
-84.3413181555481

> <r_i_glide_energy>
-51.2973670959473

> <r_i_glide_einternal>
0.583101272583008

> <i_i_glide_confnum>
31

> <i_i_glide_posenum>
277

> <r_i_glide_eff_state_penalty>
0.10583

$$$$
