@<TRIPOS>MOLECULE
/home/yujie/leadopt/data/result/selection/FGFR2/lig_44.sdf:1
38   41    1
SMALL
USER_CHARGES


@<TRIPOS>ATOM
      1 O1         34.6025   -6.5298  122.0769 O.3       1 UNK         0.0000 
      2 C2         34.2281   -5.7619  123.1410 C.ar      1 UNK         0.0000 
      3 C3         34.7888   -5.9982  124.3919 C.ar      1 UNK         0.0000 
      4 C4         34.3806   -5.2339  125.4792 C.ar      1 UNK         0.0000 
      5 C5         33.2753   -4.7667  122.9626 C.ar      1 UNK         0.0000 
      6 C6         32.8799   -3.9939  124.0477 C.ar      1 UNK         0.0000 
      7 C7         33.4243   -4.2229  125.3176 C.ar      1 UNK         0.0000 
      8 C8         32.9973   -3.3962  126.4753 C.ar      1 UNK         0.0000 
      9 C9         31.6445   -3.0786  126.6516 C.ar      1 UNK         0.0000 
     10 C10        31.2031   -2.2826  127.7064 C.ar      1 UNK         0.0000 
     11 C11        32.1543   -1.7467  128.5890 C.ar      1 UNK         0.0000 
     12 C12        33.5168   -2.1015  128.4131 C.ar      1 UNK         0.0000 
     13 N13        34.2025   -1.4294  129.3957 N.pl3     1 UNK         0.0000 
     14 N14        33.3777   -0.7047  130.1626 N.2       1 UNK         0.0000 
     15 C15        32.1518   -0.8591  129.7209 C.ar      1 UNK         0.0000 
     16 C16        31.0050   -0.1298  130.3608 C.ar      1 UNK         0.0000 
     17 C17        31.0825    0.2702  131.7021 C.ar      1 UNK         0.0000 
     18 C18        30.0343    0.9661  132.2970 C.ar      1 UNK         0.0000 
     19 C19        28.8883    1.2455  131.5605 C.ar      1 UNK         0.0000 
     20 N20        27.8541    1.9684  132.1467 N.pl3     1 UNK         0.0000 
     21 C21        28.7772    0.8205  130.2398 C.ar      1 UNK         0.0000 
     22 C22        29.8371    0.1449  129.6400 C.ar      1 UNK         0.0000 
     23 C23        33.9569   -2.9298  127.3821 C.ar      1 UNK         0.0000 
     24 H24        35.3371   -7.1403  122.2854 H         1 UNK         0.0000 
     25 H25        35.5265   -6.7779  124.5227 H         1 UNK         0.0000 
     26 H26        34.8084   -5.4346  126.4507 H         1 UNK         0.0000 
     27 H27        32.8490   -4.5926  121.9848 H         1 UNK         0.0000 
     28 H28        32.1491   -3.2129  123.8954 H         1 UNK         0.0000 
     29 H29        30.9106   -3.4691  125.9610 H         1 UNK         0.0000 
     30 H30        30.1498   -2.0776  127.8162 H         1 UNK         0.0000 
     31 H31        35.2020   -1.4372  129.5780 H         1 UNK         0.0000 
     32 H32        31.9656    0.0617  132.2873 H         1 UNK         0.0000 
     33 H33        30.1209    1.2876  133.3248 H         1 UNK         0.0000 
     34 H34        27.1027    2.2794  131.5500 H         1 UNK         0.0000 
     35 H35        28.0782    2.5056  132.9734 H         1 UNK         0.0000 
     36 H36        27.8873    1.0351  129.6669 H         1 UNK         0.0000 
     37 H37        29.7476   -0.1303  128.6022 H         1 UNK         0.0000 
     38 H38        35.0051   -3.1581  127.2587 H         1 UNK         0.0000 
@<TRIPOS>BOND
     1    1    2 1    
     2    1   24 1    
     3    2    3 ar   
     4    2    5 ar   
     5    3    4 ar   
     6    3   25 1    
     7    4    7 ar   
     8    4   26 1    
     9    5    6 ar   
    10    5   27 1    
    11    6    7 ar   
    12    6   28 1    
    13    7    8 1    
    14    8   23 ar   
    15    8    9 ar   
    16    9   10 ar   
    17    9   29 1    
    18   10   11 ar   
    19   10   30 1    
    20   11   15 ar   
    21   11   12 ar   
    22   12   13 ar   
    23   12   23 ar   
    24   13   14 ar   
    25   13   31 1    
    26   14   15 ar   
    27   15   16 1    
    28   16   22 ar   
    29   16   17 ar   
    30   17   18 ar   
    31   17   32 1    
    32   18   19 ar   
    33   18   33 1    
    34   19   20 1    
    35   19   21 ar   
    36   20   34 1    
    37   20   35 1    
    38   21   22 ar   
    39   21   36 1    
    40   22   37 1    
    41   23   38 1    
@<TRIPOS>SUBSTRUCTURE
     1 UNK         1 GROUP             0       ****    0 ROOT    
