@<TRIPOS>MOLECULE
/home/yujie/leadopt/data/result/selection/FGFR2/lig_19.sdf:1
46   49    1
SMALL
USER_CHARGES


@<TRIPOS>ATOM
      1 C1         29.9223   -5.8568  122.6861 C.3       1 UNK         0.0000 
      2 C2         30.9107   -5.0875  121.7920 C.3       1 UNK         0.0000 
      3 O3         32.2336   -5.6078  121.9129 O.3       1 UNK         0.0000 
      4 C4         33.0124   -5.3133  123.0158 C.ar      1 UNK         0.0000 
      5 C5         34.2683   -5.9102  123.0508 C.ar      1 UNK         0.0000 
      6 C6         35.1068   -5.7304  124.1430 C.ar      1 UNK         0.0000 
      7 C7         34.6950   -4.9402  125.2116 C.ar      1 UNK         0.0000 
      8 C8         33.4522   -4.2849  125.2096 C.ar      1 UNK         0.0000 
      9 C9         33.0191   -3.4289  126.3740 C.ar      1 UNK         0.0000 
     10 C10        31.6618   -3.1289  126.5826 C.ar      1 UNK         0.0000 
     11 C11        31.2178   -2.3372  127.6425 C.ar      1 UNK         0.0000 
     12 C12        32.1613   -1.7973  128.5293 C.ar      1 UNK         0.0000 
     13 C13        33.5232   -2.1299  128.3394 C.ar      1 UNK         0.0000 
     14 N14        34.2025   -1.5009  129.3605 N.pl3     1 UNK         0.0000 
     15 N15        33.3801   -0.8119  130.1625 N.2       1 UNK         0.0000 
     16 C16        32.1736   -0.9309  129.6825 C.ar      1 UNK         0.0000 
     17 N17        31.1205   -0.2954  130.3154 N.am      1 UNK         0.0000 
     18 C18        30.0163    0.2101  129.7305 C.2       1 UNK         0.0000 
     19 C19        28.9952    0.7960  130.6774 C.ar      1 UNK         0.0000 
     20 C20        29.3696    1.3367  131.9195 C.ar      1 UNK         0.0000 
     21 C21        28.4049    1.8606  132.7749 C.ar      1 UNK         0.0000 
     22 C22        27.0664    1.8607  132.3932 C.ar      1 UNK         0.0000 
     23 C23        26.6816    1.3376  131.1619 C.ar      1 UNK         0.0000 
     24 C24        27.6431    0.8079  130.3072 C.ar      1 UNK         0.0000 
     25 O25        29.8076    0.2193  128.5158 O.2       1 UNK         0.0000 
     26 C26        33.9706   -2.9300  127.2846 C.ar      1 UNK         0.0000 
     27 C27        32.6298   -4.4780  124.0820 C.ar      1 UNK         0.0000 
     28 H28        28.9079   -5.4784  122.5533 H         1 UNK         0.0000 
     29 H29        29.9156   -6.9177  122.4331 H         1 UNK         0.0000 
     30 H30        30.1696   -5.7705  123.7447 H         1 UNK         0.0000 
     31 H31        30.8823   -4.0124  121.9799 H         1 UNK         0.0000 
     32 H32        30.6112   -5.2078  120.7501 H         1 UNK         0.0000 
     33 H33        34.5936   -6.5416  122.2354 H         1 UNK         0.0000 
     34 H34        36.0681   -6.2248  124.1627 H         1 UNK         0.0000 
     35 H35        35.3713   -4.8568  126.0460 H         1 UNK         0.0000 
     36 H36        30.9038   -3.5263  125.9257 H         1 UNK         0.0000 
     37 H37        30.1630   -2.1401  127.7626 H         1 UNK         0.0000 
     38 H38        35.2004   -1.5270  129.5514 H         1 UNK         0.0000 
     39 H39        31.2690   -0.0530  131.2824 H         1 UNK         0.0000 
     40 H40        30.4034    1.3694  132.2350 H         1 UNK         0.0000 
     41 H41        28.6979    2.2719  133.7300 H         1 UNK         0.0000 
     42 H42        26.3217    2.2755  133.0562 H         1 UNK         0.0000 
     43 H43        25.6416    1.3433  130.8699 H         1 UNK         0.0000 
     44 H44        27.3271    0.3999  129.3556 H         1 UNK         0.0000 
     45 H45        35.0255   -3.1208  127.1731 H         1 UNK         0.0000 
     46 H46        31.6766   -3.9808  124.0321 H         1 UNK         0.0000 
@<TRIPOS>BOND
     1    1    2 1    
     2    1   28 1    
     3    1   29 1    
     4    1   30 1    
     5    2    3 1    
     6    2   31 1    
     7    2   32 1    
     8    3    4 1    
     9    4   27 ar   
    10    4    5 ar   
    11    5    6 ar   
    12    5   33 1    
    13    6    7 ar   
    14    6   34 1    
    15    7    8 ar   
    16    7   35 1    
    17    8    9 1    
    18    8   27 ar   
    19    9   26 ar   
    20    9   10 ar   
    21   10   11 ar   
    22   10   36 1    
    23   11   12 ar   
    24   11   37 1    
    25   12   16 ar   
    26   12   13 ar   
    27   13   14 ar   
    28   13   26 ar   
    29   14   15 ar   
    30   14   38 1    
    31   15   16 ar   
    32   16   17 1    
    33   17   18 am   BACKBONE|DICT|INTERRES
    34   17   39 1    
    35   18   19 1    
    36   18   25 2    
    37   19   24 ar   
    38   19   20 ar   
    39   20   21 ar   
    40   20   40 1    
    41   21   22 ar   
    42   21   41 1    
    43   22   23 ar   
    44   22   42 1    
    45   23   24 ar   
    46   23   43 1    
    47   24   44 1    
    48   26   45 1    
    49   27   46 1    
@<TRIPOS>SUBSTRUCTURE
     1 UNK         1 GROUP             0       ****    0 ROOT    
