@<TRIPOS>MOLECULE
/home/yujie/leadopt/data/result/selection/FGFR2/lig_40.sdf:1
66   71    1
SMALL
USER_CHARGES


@<TRIPOS>ATOM
      1 O1         34.5999   -6.5298  122.0825 O.3       1 UNK         0.0000 
      2 C2         34.2298   -5.7570  123.1448 C.ar      1 UNK         0.0000 
      3 C3         34.7835   -5.9995  124.3977 C.ar      1 UNK         0.0000 
      4 C4         34.3774   -5.2337  125.4850 C.ar      1 UNK         0.0000 
      5 C5         33.2878   -4.7521  122.9625 C.ar      1 UNK         0.0000 
      6 C6         32.8940   -3.9787  124.0491 C.ar      1 UNK         0.0000 
      7 C7         33.4295   -4.2150  125.3223 C.ar      1 UNK         0.0000 
      8 C8         33.0016   -3.3893  126.4821 C.ar      1 UNK         0.0000 
      9 C9         31.6499   -3.0645  126.6523 C.ar      1 UNK         0.0000 
     10 C10        31.2073   -2.2652  127.7039 C.ar      1 UNK         0.0000 
     11 C11        32.1571   -1.7291  128.5879 C.ar      1 UNK         0.0000 
     12 C12        33.5191   -2.0908  128.4211 C.ar      1 UNK         0.0000 
     13 N13        34.2024   -1.4140  129.4042 N.pl3     1 UNK         0.0000 
     14 N14        33.3736   -0.6814  130.1628 N.2       1 UNK         0.0000 
     15 C15        32.1501   -0.8348  129.7142 C.ar      1 UNK         0.0000 
     16 C16        30.9949   -0.1037  130.3373 C.ar      1 UNK         0.0000 
     17 C17        29.8553    0.1902  129.5852 C.ar      1 UNK         0.0000 
     18 C18        28.7754    0.8500  130.1639 C.ar      1 UNK         0.0000 
     19 C19        28.8074    1.2435  131.5066 C.ar      1 UNK         0.0000 
     20 N20        27.7327    1.9491  132.0455 N.pl3     1 UNK         0.0000 
     21 C21        27.5183    2.0595  133.5015 C.3       1 UNK         0.0000 
     22 C22        26.0942    2.4927  133.9039 C.3       1 UNK         0.0000 
     23 N23        25.7865    3.8546  133.2485 N.4       1 UNK         0.0000 
     24 C24        24.3916    4.3639  133.6877 C.3       1 UNK         0.0000 
     25 C25        24.1919    5.8357  133.2750 C.3       1 UNK         0.0000 
     26 N26        22.8886    6.3578  133.6738 N.am      1 UNK         0.0000 
     27 C27        22.5705    6.8618  134.9878 C.3       1 UNK         0.0000 
     28 C28        21.1060    7.2306  134.8813 C.3       1 UNK         0.0000 
     29 O29        20.7168    6.7134  133.6240 O.3       1 UNK         0.0000 
     30 C30        21.7437    6.2285  132.8928 C.2       1 UNK         0.0000 
     31 O31        21.6042    5.7772  131.7577 O.2       1 UNK         0.0000 
     32 C32        25.8749    3.6536  131.7204 C.3       1 UNK         0.0000 
     33 C33        27.2975    3.1824  131.3611 C.3       1 UNK         0.0000 
     34 C34        29.9443    0.9347  132.2640 C.ar      1 UNK         0.0000 
     35 C35        31.0232    0.2702  131.6862 C.ar      1 UNK         0.0000 
     36 C36        33.9584   -2.9301  127.3964 C.ar      1 UNK         0.0000 
     37 H37        35.3343   -7.1416  122.2903 H         1 UNK         0.0000 
     38 H38        35.5137   -6.7861  124.5297 H         1 UNK         0.0000 
     39 H39        34.7996   -5.4411  126.4576 H         1 UNK         0.0000 
     40 H40        32.8671   -4.5735  121.9832 H         1 UNK         0.0000 
     41 H41        32.1698   -3.1919  123.8953 H         1 UNK         0.0000 
     42 H42        30.9178   -3.4513  125.9575 H         1 UNK         0.0000 
     43 H43        30.1543   -2.0550  127.8078 H         1 UNK         0.0000 
     44 H44        35.2011   -1.4238  129.5923 H         1 UNK         0.0000 
     45 H45        29.8023   -0.0633  128.5390 H         1 UNK         0.0000 
     46 H46        27.9094    1.0579  129.5535 H         1 UNK         0.0000 
     47 H47        28.2084    2.7984  133.9073 H         1 UNK         0.0000 
     48 H48        27.7447    1.1046  133.9791 H         1 UNK         0.0000 
     49 H49        26.0174    2.6322  134.9839 H         1 UNK         0.0000 
     50 H50        25.3331    1.7789  133.5800 H         1 UNK         0.0000 
     51 H51        24.3606    4.2672  134.7755 H         1 UNK         0.0000 
     52 H52        23.6490    3.6907  133.2501 H         1 UNK         0.0000 
     53 H53        24.2883    5.9425  132.1937 H         1 UNK         0.0000 
     54 H54        24.9700    6.4602  133.7173 H         1 UNK         0.0000 
     55 H55        23.1832    7.7262  135.2479 H         1 UNK         0.0000 
     56 H56        22.7454    6.1333  135.7813 H         1 UNK         0.0000 
     57 H57        20.5358    6.7713  135.6909 H         1 UNK         0.0000 
     58 H58        20.9772    8.3134  134.9050 H         1 UNK         0.0000 
     59 H59        25.1115    2.9283  131.4267 H         1 UNK         0.0000 
     60 H60        25.6569    4.6098  131.2442 H         1 UNK         0.0000 
     61 H61        27.3558    3.0686  130.2795 H         1 UNK         0.0000 
     62 H62        27.9957    3.9797  131.6270 H         1 UNK         0.0000 
     63 H63        30.0171    1.2255  133.3014 H         1 UNK         0.0000 
     64 H64        31.8871    0.0505  132.2954 H         1 UNK         0.0000 
     65 H65        35.0054   -3.1652  127.2778 H         1 UNK         0.0000 
     66 H66        26.5000    4.5119  133.5387 H         1 UNK         0.0000 
@<TRIPOS>BOND
     1    1    2 1    
     2    1   37 1    
     3    2    3 ar   
     4    2    5 ar   
     5    3    4 ar   
     6    3   38 1    
     7    4    7 ar   
     8    4   39 1    
     9    5    6 ar   
    10    5   40 1    
    11    6    7 ar   
    12    6   41 1    
    13    7    8 1    
    14    8   36 ar   
    15    8    9 ar   
    16    9   10 ar   
    17    9   42 1    
    18   10   11 ar   
    19   10   43 1    
    20   11   15 ar   
    21   11   12 ar   
    22   12   13 ar   
    23   12   36 ar   
    24   13   14 ar   
    25   13   44 1    
    26   14   15 ar   
    27   15   16 1    
    28   16   35 ar   
    29   16   17 ar   
    30   17   18 ar   
    31   17   45 1    
    32   18   19 ar   
    33   18   46 1    
    34   19   20 1    
    35   19   34 ar   
    36   20   33 1    
    37   20   21 1    
    38   21   22 1    
    39   21   47 1    
    40   21   48 1    
    41   22   23 1    
    42   22   49 1    
    43   22   50 1    
    44   23   24 1    
    45   23   32 1    
    46   23   66 1    
    47   24   25 1    
    48   24   51 1    
    49   24   52 1    
    50   25   26 1    
    51   25   53 1    
    52   25   54 1    
    53   26   30 am   BACKBONE|DICT|INTERRES
    54   26   27 1    
    55   27   28 1    
    56   27   55 1    
    57   27   56 1    
    58   28   29 1    
    59   28   57 1    
    60   28   58 1    
    61   29   30 1    
    62   30   31 2    
    63   32   33 1    
    64   32   59 1    
    65   32   60 1    
    66   33   61 1    
    67   33   62 1    
    68   34   35 ar   
    69   34   63 1    
    70   35   64 1    
    71   36   65 1    
@<TRIPOS>SUBSTRUCTURE
     1 UNK         1 GROUP             0       ****    0 ROOT    
