@<TRIPOS>MOLECULE
/home/yujie/leadopt/data/result/selection/FGFR2/lig_38.sdf:1
50   54    1
SMALL
USER_CHARGES


@<TRIPOS>ATOM
      1 O1         34.6025   -6.5298  122.0819 O.3       1 UNK         0.0000 
      2 C2         34.2256   -5.7609  123.1443 C.ar      1 UNK         0.0000 
      3 C3         34.7802   -5.9999  124.3974 C.ar      1 UNK         0.0000 
      4 C4         34.3703   -5.2350  125.4836 C.ar      1 UNK         0.0000 
      5 C5         33.2774   -4.7617  122.9624 C.ar      1 UNK         0.0000 
      6 C6         32.8801   -3.9883  124.0470 C.ar      1 UNK         0.0000 
      7 C7         33.4184   -4.2199  125.3193 C.ar      1 UNK         0.0000 
      8 C8         32.9924   -3.3910  126.4767 C.ar      1 UNK         0.0000 
      9 C9         31.6411   -3.0650  126.6509 C.ar      1 UNK         0.0000 
     10 C10        31.2024   -2.2655  127.7048 C.ar      1 UNK         0.0000 
     11 C11        32.1555   -1.7341  128.5884 C.ar      1 UNK         0.0000 
     12 C12        33.5153   -2.0980  128.4147 C.ar      1 UNK         0.0000 
     13 N13        34.2024   -1.4286  129.3974 N.pl3     1 UNK         0.0000 
     14 N14        33.3834   -0.6979  130.1627 N.2       1 UNK         0.0000 
     15 C15        32.1579   -0.8460  129.7204 C.ar      1 UNK         0.0000 
     16 C16        31.0148   -0.1205  130.3679 C.ar      1 UNK         0.0000 
     17 C17        29.8403    0.1499  129.6613 C.ar      1 UNK         0.0000 
     18 C18        28.7722    0.7899  130.2841 C.ar      1 UNK         0.0000 
     19 C19        28.8530    1.1818  131.6254 C.ar      1 UNK         0.0000 
     20 N20        27.7772    1.8249  132.2317 N.pl3     1 UNK         0.0000 
     21 C21        27.1578    2.9934  131.5810 C.3       1 UNK         0.0000 
     22 C22        25.7494    3.3491  132.1077 C.3       1 UNK         0.0000 
     23 N23        25.7309    3.4874  133.5575 N.3       1 UNK         0.0000 
     24 C24        26.2385    2.2836  134.2000 C.3       1 UNK         0.0000 
     25 C25        27.6527    1.9123  133.6985 C.3       1 UNK         0.0000 
     26 C26        30.0320    0.9111  132.3292 C.ar      1 UNK         0.0000 
     27 C27        31.0975    0.2701  131.7093 C.ar      1 UNK         0.0000 
     28 C28        33.9527   -2.9303  127.3855 C.ar      1 UNK         0.0000 
     29 H29        35.3370   -7.1398  122.2920 H         1 UNK         0.0000 
     30 H30        35.5150   -6.7818  124.5308 H         1 UNK         0.0000 
     31 H31        34.7942   -5.4379  126.4562 H         1 UNK         0.0000 
     32 H32        32.8567   -4.5849  121.9825 H         1 UNK         0.0000 
     33 H33        32.1533   -3.2041  123.8921 H         1 UNK         0.0000 
     34 H34        30.9059   -3.4510  125.9589 H         1 UNK         0.0000 
     35 H35        30.1501   -2.0537  127.8126 H         1 UNK         0.0000 
     36 H36        35.2018   -1.4424  129.5802 H         1 UNK         0.0000 
     37 H37        29.7456   -0.1137  128.6209 H         1 UNK         0.0000 
     38 H38        27.8732    0.9711  129.7147 H         1 UNK         0.0000 
     39 H39        27.8039    3.8557  131.7561 H         1 UNK         0.0000 
     40 H40        27.0986    2.8585  130.5016 H         1 UNK         0.0000 
     41 H41        25.0389    2.5786  131.8040 H         1 UNK         0.0000 
     42 H42        25.4258    4.2898  131.6616 H         1 UNK         0.0000 
     43 H43        26.1908    4.3285  133.8783 H         1 UNK         0.0000 
     44 H44        25.5546    1.4536  134.0144 H         1 UNK         0.0000 
     45 H45        26.2712    2.4480  135.2776 H         1 UNK         0.0000 
     46 H46        27.9374    0.9605  134.1485 H         1 UNK         0.0000 
     47 H47        28.3462    2.6712  134.0632 H         1 UNK         0.0000 
     48 H48        30.1435    1.2048  133.3618 H         1 UNK         0.0000 
     49 H49        31.9897    0.0738  132.2847 H         1 UNK         0.0000 
     50 H50        35.0002   -3.1640  127.2646 H         1 UNK         0.0000 
@<TRIPOS>BOND
     1    1    2 1    
     2    1   29 1    
     3    2    3 ar   
     4    2    5 ar   
     5    3    4 ar   
     6    3   30 1    
     7    4    7 ar   
     8    4   31 1    
     9    5    6 ar   
    10    5   32 1    
    11    6    7 ar   
    12    6   33 1    
    13    7    8 1    
    14    8   28 ar   
    15    8    9 ar   
    16    9   10 ar   
    17    9   34 1    
    18   10   11 ar   
    19   10   35 1    
    20   11   15 ar   
    21   11   12 ar   
    22   12   13 ar   
    23   12   28 ar   
    24   13   14 ar   
    25   13   36 1    
    26   14   15 ar   
    27   15   16 1    
    28   16   27 ar   
    29   16   17 ar   
    30   17   18 ar   
    31   17   37 1    
    32   18   19 ar   
    33   18   38 1    
    34   19   20 1    
    35   19   26 ar   
    36   20   25 1    
    37   20   21 1    
    38   21   22 1    
    39   21   39 1    
    40   21   40 1    
    41   22   23 1    
    42   22   41 1    
    43   22   42 1    
    44   23   24 1    
    45   23   43 1    
    46   24   25 1    
    47   24   44 1    
    48   24   45 1    
    49   25   46 1    
    50   25   47 1    
    51   26   27 ar   
    52   26   48 1    
    53   27   49 1    
    54   28   50 1    
@<TRIPOS>SUBSTRUCTURE
     1 UNK         1 GROUP             0       ****    0 ROOT    
