@<TRIPOS>MOLECULE
/home/yujie/leadopt/data/result/selection/FGFR2/lig_15.sdf:1
41   44    1
SMALL
USER_CHARGES


@<TRIPOS>ATOM
      1 O1         34.6025   -6.5298  122.0769 O.3       1 UNK         0.0000 
      2 C2         34.2342   -5.7586  123.1407 C.ar      1 UNK         0.0000 
      3 C3         34.7950   -5.9977  124.3914 C.ar      1 UNK         0.0000 
      4 C4         34.3905   -5.2329  125.4799 C.ar      1 UNK         0.0000 
      5 C5         33.2868   -4.7582  122.9626 C.ar      1 UNK         0.0000 
      6 C6         32.8947   -3.9858  124.0497 C.ar      1 UNK         0.0000 
      7 C7         33.4370   -4.2192  125.3202 C.ar      1 UNK         0.0000 
      8 C8         33.0083   -3.3958  126.4805 C.ar      1 UNK         0.0000 
      9 C9         31.6550   -3.0808  126.6539 C.ar      1 UNK         0.0000 
     10 C10        31.2099   -2.2847  127.7065 C.ar      1 UNK         0.0000 
     11 C11        32.1580   -1.7409  128.5879 C.ar      1 UNK         0.0000 
     12 C12        33.5216   -2.0945  128.4176 C.ar      1 UNK         0.0000 
     13 N13        34.2025   -1.4158  129.4006 N.pl3     1 UNK         0.0000 
     14 N14        33.3726   -0.6895  130.1626 N.2       1 UNK         0.0000 
     15 C15        32.1492   -0.8475  129.7156 C.ar      1 UNK         0.0000 
     16 C16        30.9921   -0.1298  130.3512 C.ar      1 UNK         0.0000 
     17 C17        29.8165    0.1199  129.6319 C.ar      1 UNK         0.0000 
     18 C18        28.7139    0.7440  130.2242 C.ar      1 UNK         0.0000 
     19 C19        27.4655    0.9635  129.3677 C.3       1 UNK         0.0000 
     20 N20        26.3909    1.6862  130.0305 N.3       1 UNK         0.0000 
     21 C21        28.8003    1.1400  131.5661 C.ar      1 UNK         0.0000 
     22 C22        29.9638    0.9080  132.2946 C.ar      1 UNK         0.0000 
     23 C23        31.0468    0.2702  131.6937 C.ar      1 UNK         0.0000 
     24 C24        33.9647   -2.9298  127.3918 C.ar      1 UNK         0.0000 
     25 H25        35.3364   -7.1414  122.2842 H         1 UNK         0.0000 
     26 H26        35.5291   -6.7809  124.5213 H         1 UNK         0.0000 
     27 H27        34.8176   -5.4367  126.4510 H         1 UNK         0.0000 
     28 H28        32.8606   -4.5816  121.9852 H         1 UNK         0.0000 
     29 H29        32.1663   -3.2022  123.8988 H         1 UNK         0.0000 
     30 H30        30.9231   -3.4735  125.9623 H         1 UNK         0.0000 
     31 H31        30.1554   -2.0850  127.8134 H         1 UNK         0.0000 
     32 H32        35.2012   -1.4216  129.5871 H         1 UNK         0.0000 
     33 H33        29.7532   -0.1516  128.5912 H         1 UNK         0.0000 
     34 H34        27.0819   -0.0126  129.0654 H         1 UNK         0.0000 
     35 H35        27.7405    1.5016  128.4595 H         1 UNK         0.0000 
     36 H36        26.6447    2.6583  130.1354 H         1 UNK         0.0000 
     37 H37        25.5606    1.6745  129.4549 H         1 UNK         0.0000 
     38 H38        27.9706    1.6273  132.0565 H         1 UNK         0.0000 
     39 H39        30.0243    1.2161  133.3285 H         1 UNK         0.0000 
     40 H40        31.9335    0.0887  132.2825 H         1 UNK         0.0000 
     41 H41        35.0133   -3.1580  127.2715 H         1 UNK         0.0000 
@<TRIPOS>BOND
     1    1    2 1    
     2    1   25 1    
     3    2    3 ar   
     4    2    5 ar   
     5    3    4 ar   
     6    3   26 1    
     7    4    7 ar   
     8    4   27 1    
     9    5    6 ar   
    10    5   28 1    
    11    6    7 ar   
    12    6   29 1    
    13    7    8 1    
    14    8   24 ar   
    15    8    9 ar   
    16    9   10 ar   
    17    9   30 1    
    18   10   11 ar   
    19   10   31 1    
    20   11   15 ar   
    21   11   12 ar   
    22   12   13 ar   
    23   12   24 ar   
    24   13   14 ar   
    25   13   32 1    
    26   14   15 ar   
    27   15   16 1    
    28   16   23 ar   
    29   16   17 ar   
    30   17   18 ar   
    31   17   33 1    
    32   18   19 1    
    33   18   21 ar   
    34   19   20 1    
    35   19   34 1    
    36   19   35 1    
    37   20   36 1    
    38   20   37 1    
    39   21   22 ar   
    40   21   38 1    
    41   22   23 ar   
    42   22   39 1    
    43   23   40 1    
    44   24   41 1    
@<TRIPOS>SUBSTRUCTURE
     1 UNK         1 GROUP             0       ****    0 ROOT    
