@<TRIPOS>MOLECULE
/home/yujie/leadopt/data/result/selection/FGFR2/lig_42.sdf:1
50   54    1
SMALL
USER_CHARGES


@<TRIPOS>ATOM
      1 O1         34.6024   -6.5298  122.0640 O.3       1 UNK         0.0000 
      2 C2         34.1977   -5.7813  123.1334 C.ar      1 UNK         0.0000 
      3 C3         33.0725   -4.9612  123.0396 C.ar      1 UNK         0.0000 
      4 F4         32.3292   -4.9297  121.9110 F         1 UNK         0.0000 
      5 C5         32.6907   -4.1831  124.1282 C.ar      1 UNK         0.0000 
      6 C6         34.8957   -5.8711  124.3349 C.ar      1 UNK         0.0000 
      7 C7         34.4750   -5.1293  125.4368 C.ar      1 UNK         0.0000 
      8 C8         33.3836   -4.2537  125.3449 C.ar      1 UNK         0.0000 
      9 C9         32.9661   -3.4209  126.5077 C.ar      1 UNK         0.0000 
     10 C10        31.6124   -3.1168  126.7136 C.ar      1 UNK         0.0000 
     11 C11        31.1837   -2.3068  127.7628 C.ar      1 UNK         0.0000 
     12 C12        32.1459   -1.7488  128.6178 C.ar      1 UNK         0.0000 
     13 C13        33.5065   -2.0927  128.4199 C.ar      1 UNK         0.0000 
     14 N14        34.2024   -1.4039  129.3824 N.pl3     1 UNK         0.0000 
     15 N15        33.3876   -0.6829  130.1625 N.2       1 UNK         0.0000 
     16 C16        32.1574   -0.8482  129.7394 C.ar      1 UNK         0.0000 
     17 C17        31.0161   -0.1295  130.3951 C.ar      1 UNK         0.0000 
     18 C18        29.8321    0.1273  129.6994 C.ar      1 UNK         0.0000 
     19 C19        28.7677    0.7672  130.3284 C.ar      1 UNK         0.0000 
     20 C20        28.8620    1.1713  131.6652 C.ar      1 UNK         0.0000 
     21 N21        27.7942    1.8219  132.2776 N.pl3     1 UNK         0.0000 
     22 C22        27.6933    1.9297  133.7448 C.3       1 UNK         0.0000 
     23 C23        26.2996    2.3478  134.2641 C.3       1 UNK         0.0000 
     24 N24        25.8217    3.5613  133.6167 N.3       1 UNK         0.0000 
     25 C25        25.8066    3.4036  132.1691 C.3       1 UNK         0.0000 
     26 C26        27.1914    2.9959  131.6192 C.3       1 UNK         0.0000 
     27 C27        30.0496    0.9108  132.3581 C.ar      1 UNK         0.0000 
     28 C28        31.1117    0.2699  131.7325 C.ar      1 UNK         0.0000 
     29 C29        33.9364   -2.9296  127.3911 C.ar      1 UNK         0.0000 
     30 H30        35.3573   -7.1148  122.2649 H         1 UNK         0.0000 
     31 H31        31.8378   -3.5305  124.0152 H         1 UNK         0.0000 
     32 H32        35.7499   -6.5294  124.4190 H         1 UNK         0.0000 
     33 H33        35.0024   -5.2406  126.3713 H         1 UNK         0.0000 
     34 H34        30.8619   -3.5265  126.0531 H         1 UNK         0.0000 
     35 H35        30.1309   -2.1109  127.8922 H         1 UNK         0.0000 
     36 H36        35.2049   -1.4046  129.5482 H         1 UNK         0.0000 
     37 H37        29.7280   -0.1453  128.6621 H         1 UNK         0.0000 
     38 H38        27.8621    0.9409  129.7673 H         1 UNK         0.0000 
     39 H39        27.9530    0.9718  134.1982 H         1 UNK         0.0000 
     40 H40        28.4151    2.6694  134.0932 H         1 UNK         0.0000 
     41 H41        26.3554    2.5216  135.3391 H         1 UNK         0.0000 
     42 H42        25.5872    1.5383  134.0976 H         1 UNK         0.0000 
     43 H43        26.3234    4.3866  133.9164 H         1 UNK         0.0000 
     44 H44        25.5053    4.3486  131.7167 H         1 UNK         0.0000 
     45 H45        25.0647    2.6543  131.8901 H         1 UNK         0.0000 
     46 H46        27.8652    3.8428  131.7619 H         1 UNK         0.0000 
     47 H47        27.0987    2.8396  130.5452 H         1 UNK         0.0000 
     48 H48        30.1717    1.2142  133.3863 H         1 UNK         0.0000 
     49 H49        32.0117    0.0838  132.2993 H         1 UNK         0.0000 
     50 H50        34.9869   -3.1380  127.2530 H         1 UNK         0.0000 
@<TRIPOS>BOND
     1    1    2 1    
     2    1   30 1    
     3    2    3 ar   
     4    2    6 ar   
     5    3    4 1    
     6    3    5 ar   
     7    5    8 ar   
     8    5   31 1    
     9    6    7 ar   
    10    6   32 1    
    11    7    8 ar   
    12    7   33 1    
    13    8    9 1    
    14    9   29 ar   
    15    9   10 ar   
    16   10   11 ar   
    17   10   34 1    
    18   11   12 ar   
    19   11   35 1    
    20   12   16 ar   
    21   12   13 ar   
    22   13   14 ar   
    23   13   29 ar   
    24   14   15 ar   
    25   14   36 1    
    26   15   16 ar   
    27   16   17 1    
    28   17   28 ar   
    29   17   18 ar   
    30   18   19 ar   
    31   18   37 1    
    32   19   20 ar   
    33   19   38 1    
    34   20   21 1    
    35   20   27 ar   
    36   21   26 1    
    37   21   22 1    
    38   22   23 1    
    39   22   39 1    
    40   22   40 1    
    41   23   24 1    
    42   23   41 1    
    43   23   42 1    
    44   24   25 1    
    45   24   43 1    
    46   25   26 1    
    47   25   44 1    
    48   25   45 1    
    49   26   46 1    
    50   26   47 1    
    51   27   28 ar   
    52   27   48 1    
    53   28   49 1    
    54   29   50 1    
@<TRIPOS>SUBSTRUCTURE
     1 UNK         1 GROUP             0       ****    0 ROOT    
