@<TRIPOS>MOLECULE
/home/yujie/leadopt/data/result/selection/FGFR2/lig_1.sdf:1
32   34    1
SMALL
USER_CHARGES


@<TRIPOS>ATOM
      1 C1         30.2922   -6.4297  120.9014 C.3       1 UNK         0.0000 
      2 C2         30.9371   -5.7676  122.1215 C.3       1 UNK         0.0000 
      3 O3         32.3146   -6.1283  122.1630 O.3       1 UNK         0.0000 
      4 C4         33.1429   -5.5255  123.0953 C.ar      1 UNK         0.0000 
      5 C5         34.5036   -5.7742  122.9625 C.ar      1 UNK         0.0000 
      6 C6         35.4169   -5.2215  123.8489 C.ar      1 UNK         0.0000 
      7 C7         34.9694   -4.4275  124.9000 C.ar      1 UNK         0.0000 
      8 C8         33.5991   -4.1743  125.1118 C.ar      1 UNK         0.0000 
      9 C9         33.1209   -3.3713  126.3045 C.ar      1 UNK         0.0000 
     10 C10        31.7569   -3.0469  126.4722 C.ar      1 UNK         0.0000 
     11 C11        31.2783   -2.3012  127.5539 C.ar      1 UNK         0.0000 
     12 C12        32.1956   -1.8176  128.4890 C.ar      1 UNK         0.0000 
     13 C13        33.5614   -2.1363  128.3345 C.ar      1 UNK         0.0000 
     14 N14        34.2024   -1.4939  129.3737 N.pl3     1 UNK         0.0000 
     15 N15        33.3402   -0.8285  130.1631 N.2       1 UNK         0.0000 
     16 C16        32.1480   -1.0044  129.6581 C.ar      1 UNK         0.0000 
     17 C17        34.0360   -2.9303  127.2859 C.ar      1 UNK         0.0000 
     18 C18        32.7057   -4.7211  124.1625 C.ar      1 UNK         0.0000 
     19 H19        29.2429   -6.1453  120.8159 H         1 UNK         0.0000 
     20 H20        30.3372   -7.5167  120.9624 H         1 UNK         0.0000 
     21 H21        30.7939   -6.1207  119.9818 H         1 UNK         0.0000 
     22 H22        30.8314   -4.6843  122.0385 H         1 UNK         0.0000 
     23 H23        30.4271   -6.0896  123.0324 H         1 UNK         0.0000 
     24 H24        34.8599   -6.4084  122.1621 H         1 UNK         0.0000 
     25 H25        36.4717   -5.4338  123.7249 H         1 UNK         0.0000 
     26 H26        35.7311   -4.0328  125.5484 H         1 UNK         0.0000 
     27 H27        31.0120   -3.3627  125.7592 H         1 UNK         0.0000 
     28 H28        30.2255   -2.0753  127.6419 H         1 UNK         0.0000 
     29 H29        35.1962   -1.4893  129.5825 H         1 UNK         0.0000 
     30 H30        31.2775   -0.5567  130.1131 H         1 UNK         0.0000 
     31 H31        35.0907   -3.1416  127.2443 H         1 UNK         0.0000 
     32 H32        31.6483   -4.5592  124.2627 H         1 UNK         0.0000 
@<TRIPOS>BOND
     1    1    2 1    
     2    1   19 1    
     3    1   20 1    
     4    1   21 1    
     5    2    3 1    
     6    2   22 1    
     7    2   23 1    
     8    3    4 1    
     9    4   18 ar   
    10    4    5 ar   
    11    5    6 ar   
    12    5   24 1    
    13    6    7 ar   
    14    6   25 1    
    15    7    8 ar   
    16    7   26 1    
    17    8    9 1    
    18    8   18 ar   
    19    9   17 ar   
    20    9   10 ar   
    21   10   11 ar   
    22   10   27 1    
    23   11   12 ar   
    24   11   28 1    
    25   12   16 ar   
    26   12   13 ar   
    27   13   14 ar   
    28   13   17 ar   
    29   14   15 ar   
    30   14   29 1    
    31   15   16 ar   
    32   16   30 1    
    33   17   31 1    
    34   18   32 1    
@<TRIPOS>SUBSTRUCTURE
     1 UNK         1 GROUP             0       ****    0 ROOT    
