/home/yujie/leadopt/data/result/selection/FGFR2/lig_2.sdf:1
                    3D
 Schrodinger Suite 2020-3.
 48 51  0  0  1  0            999 V2000
   29.9046   -5.5075  122.5776 C   0  0  0  0  0  0
   30.9679   -4.8150  121.7073 C   0  0  0  0  0  0
   32.2462   -5.4312  121.8613 O   0  0  0  0  0  0
   32.9967   -5.2228  123.0021 C   0  0  0  0  0  0
   34.2035   -5.9115  123.0678 C   0  0  0  0  0  0
   35.0022   -5.8320  124.2031 C   0  0  0  0  0  0
   34.6030   -5.0468  125.2815 C   0  0  0  0  0  0
   33.4180   -4.2950  125.2399 C   0  0  0  0  0  0
   33.0023   -3.4423  126.4051 C   0  0  0  0  0  0
   31.6461   -3.1489  126.6228 C   0  0  0  0  0  0
   31.2095   -2.3546  127.6818 C   0  0  0  0  0  0
   32.1600   -1.8034  128.5546 C   0  0  0  0  0  0
   33.5244   -2.1297  128.3567 C   0  0  0  0  0  0
   34.2025   -1.4760  129.3630 N   0  0  0  0  0  0
   33.3694   -0.7795  130.1562 N   0  0  0  0  0  0
   32.1512   -0.9087  129.6839 C   0  0  0  0  0  0
   30.9915   -0.1705  130.2926 C   0  0  0  0  0  0
   29.8280    0.0711  129.5492 C   0  0  0  0  0  0
   28.7241    0.7165  130.1169 C   0  0  0  0  0  0
   27.4898    0.9988  129.2799 C   0  0  0  0  0  0
   26.4528   -0.1293  129.3519 N   0  3  0  0  0  0
   28.7933    1.1562  131.4414 C   0  0  0  0  0  0
   29.9448    0.9346  132.1920 C   0  0  0  0  0  0
   31.0301    0.2699  131.6235 C   0  0  0  0  0  0
   33.9641   -2.9361  127.3009 C   0  0  0  0  0  0
   32.6315   -4.3922  124.0763 C   0  0  0  0  0  0
   28.9245   -5.0521  122.4263 H   0  0  0  0  0  0
   30.1371   -5.4507  123.6412 H   0  0  0  0  0  0
   29.8234   -6.5634  122.3155 H   0  0  0  0  0  0
   30.6831   -4.9146  120.6587 H   0  0  0  0  0  0
   31.0181   -3.7407  121.8990 H   0  0  0  0  0  0
   34.5196   -6.5385  122.2456 H   0  0  0  0  0  0
   35.9220   -6.3985  124.2464 H   0  0  0  0  0  0
   35.2280   -5.0438  126.1607 H   0  0  0  0  0  0
   30.8906   -3.5606  125.9711 H   0  0  0  0  0  0
   30.1550   -2.1759  127.8117 H   0  0  0  0  0  0
   35.2013   -1.4857  129.5503 H   0  0  0  0  0  0
   29.7807   -0.2167  128.5117 H   0  0  0  0  0  0
   26.9641    1.8923  129.6203 H   0  0  0  0  0  0
   27.7243    1.1048  128.2177 H   0  0  0  0  0  0
   25.6232    0.1157  128.8301 H   0  0  0  0  0  0
   26.8211   -0.9914  128.9674 H   0  0  0  0  0  0
   27.9617    1.6769  131.8927 H   0  0  0  0  0  0
   29.9976    1.2774  133.2144 H   0  0  0  0  0  0
   31.9106    0.1040  132.2249 H   0  0  0  0  0  0
   35.0163   -3.1290  127.1688 H   0  0  0  0  0  0
   31.7204   -3.8206  124.0087 H   0  0  0  0  0  0
   26.1885   -0.2917  130.3131 H   0  0  0  0  0  0
  1  2  1  0  0  0
  1 27  1  0  0  0
  1 28  1  0  0  0
  1 29  1  0  0  0
  2  3  1  0  0  0
  2 30  1  0  0  0
  2 31  1  0  0  0
  3  4  1  0  0  0
  4 26  1  0  0  0
  4  5  2  0  0  0
  5  6  1  0  0  0
  5 32  1  0  0  0
  6  7  2  0  0  0
  6 33  1  0  0  0
  7  8  1  0  0  0
  7 34  1  0  0  0
  8  9  1  0  0  0
  8 26  2  0  0  0
  9 25  1  0  0  0
  9 10  2  0  0  0
 10 11  1  0  0  0
 10 35  1  0  0  0
 11 12  2  0  0  0
 11 36  1  0  0  0
 12 16  1  0  0  0
 12 13  1  0  0  0
 13 14  1  0  0  0
 13 25  2  0  0  0
 14 15  1  0  0  0
 14 37  1  0  0  0
 15 16  2  0  0  0
 16 17  1  0  0  0
 17 24  1  0  0  0
 17 18  2  0  0  0
 18 19  1  0  0  0
 18 38  1  0  0  0
 19 20  1  0  0  0
 19 22  2  0  0  0
 20 21  1  0  0  0
 20 39  1  0  0  0
 20 40  1  0  0  0
 21 41  1  0  0  0
 21 42  1  0  0  0
 21 48  1  0  0  0
 22 23  1  0  0  0
 22 43  1  0  0  0
 23 24  2  0  0  0
 23 44  1  0  0  0
 24 45  1  0  0  0
 25 46  1  0  0  0
 26 47  1  0  0  0
M  CHG  1  21   1
M  END
> <s_m_source_file>
/home/yujie/leadopt/data/result/selection/FGFR2/lig_2.sdf

> <i_m_source_file_index>
1

> <i_lp_mmshare_version>
51139

> <i_f3d_flags>
0

> <s_epik_input>
W0NIM11bQ0gyXU9jMVtjSF1bY0hdW2NIXWMoW2NIXTEpLWMoW2NIXVtjSF0yKVtjSF1jKGMyMylbbkhdbmMzLWM0W2NIXWMoW0NIMl1bTkgyXSlbY0hdW2NIXVtjSF00

> <s_epik_cmdline>
J2VwaWtfcHl0aG9uJywgJy1waHQnLCAnMi4wJywgJy1waCcsICc3LjAnLCAnLXRuJywgJzgnLCAnLW1hJywgJzIwMCcsICctaW1hZScsICc8aW5maWxlLm1hZT4nLCAnLW9tYWUnLCAnPG91dGZpbGUubWFlPic=

> <r_lp_tautomer_probability>
0.980392

> <r_epik_Ionization_Penalty>
  0.0285

> <r_epik_Ionization_Penalty_Charging>
  0.0285

> <r_epik_Ionization_Penalty_Neutral>
  0.0000

> <r_epik_State_Penalty>
  0.0325

> <r_epik_Charging_Adjusted_Penalty>
0.0610643

> <i_epik_Tot_Q>
1

> <i_epik_Tot_abs_Q>
1

> <s_lp_Force_Field>
OPLS3e

> <r_lp_Energy>
39.825

> <b_lp_Chiralities_Consistent>
1

> <s_lp_Variant>
/home/yujie/leadopt/data/result/selection/FGFR2/lig_2.sdf:1-1

> <s_i_glide_gridfile>
glide-grid_FGFR2

> <i_i_glide_lignum>
1

> <i_i_glide_rotatable_bonds>
5

> <r_i_docking_score>
-9.20162903619232

> <r_i_glide_ligand_efficiency>
-0.35390880908432

> <r_i_glide_ligand_efficiency_sa>
-1.04845345434838

> <r_i_glide_ligand_efficiency_ln>
-2.16097238614225

> <r_i_glide_gscore>
-9.23416333619232

> <r_i_glide_lipo>
-4.00265344671668

> <r_i_glide_hbond>
-0.501467926343085

> <r_i_glide_metal>
-0

> <r_i_glide_rewards>
-2.02838127996304

> <r_i_glide_evdw>
-39.8209571838379

> <r_i_glide_ecoul>
-6.93395090103149

> <r_i_glide_erotb>
0.336110422938428

> <r_i_glide_esite>
-0.00663061176131577

> <r_i_glide_emodel>
-75.5887790899021

> <r_i_glide_energy>
-46.7549080848694

> <r_i_glide_einternal>
0.792271077632904

> <i_i_glide_confnum>
36

> <i_i_glide_posenum>
227

> <r_i_glide_eff_state_penalty>
0.0325343

$$$$
