@<TRIPOS>MOLECULE
/home/yujie/leadopt/data/result/selection/FGFR2/lig_2.sdf:1
48   51    1
SMALL
USER_CHARGES


@<TRIPOS>ATOM
      1 C1         29.9046   -5.5075  122.5776 C.3       1 UNK         0.0000 
      2 C2         30.9679   -4.8150  121.7073 C.3       1 UNK         0.0000 
      3 O3         32.2462   -5.4312  121.8613 O.3       1 UNK         0.0000 
      4 C4         32.9967   -5.2228  123.0021 C.ar      1 UNK         0.0000 
      5 C5         34.2035   -5.9115  123.0678 C.ar      1 UNK         0.0000 
      6 C6         35.0022   -5.8320  124.2031 C.ar      1 UNK         0.0000 
      7 C7         34.6030   -5.0468  125.2815 C.ar      1 UNK         0.0000 
      8 C8         33.4180   -4.2950  125.2399 C.ar      1 UNK         0.0000 
      9 C9         33.0023   -3.4423  126.4051 C.ar      1 UNK         0.0000 
     10 C10        31.6461   -3.1489  126.6228 C.ar      1 UNK         0.0000 
     11 C11        31.2095   -2.3546  127.6818 C.ar      1 UNK         0.0000 
     12 C12        32.1600   -1.8034  128.5546 C.ar      1 UNK         0.0000 
     13 C13        33.5244   -2.1297  128.3567 C.ar      1 UNK         0.0000 
     14 N14        34.2025   -1.4760  129.3630 N.pl3     1 UNK         0.0000 
     15 N15        33.3694   -0.7795  130.1562 N.2       1 UNK         0.0000 
     16 C16        32.1512   -0.9087  129.6839 C.ar      1 UNK         0.0000 
     17 C17        30.9915   -0.1705  130.2926 C.ar      1 UNK         0.0000 
     18 C18        29.8280    0.0711  129.5492 C.ar      1 UNK         0.0000 
     19 C19        28.7241    0.7165  130.1169 C.ar      1 UNK         0.0000 
     20 C20        27.4898    0.9988  129.2799 C.3       1 UNK         0.0000 
     21 N21        26.4528   -0.1293  129.3519 N.4       1 UNK         0.0000 
     22 C22        28.7933    1.1562  131.4414 C.ar      1 UNK         0.0000 
     23 C23        29.9448    0.9346  132.1920 C.ar      1 UNK         0.0000 
     24 C24        31.0301    0.2699  131.6235 C.ar      1 UNK         0.0000 
     25 C25        33.9641   -2.9361  127.3009 C.ar      1 UNK         0.0000 
     26 C26        32.6315   -4.3922  124.0763 C.ar      1 UNK         0.0000 
     27 H27        28.9245   -5.0521  122.4263 H         1 UNK         0.0000 
     28 H28        30.1371   -5.4507  123.6412 H         1 UNK         0.0000 
     29 H29        29.8234   -6.5634  122.3155 H         1 UNK         0.0000 
     30 H30        30.6831   -4.9146  120.6587 H         1 UNK         0.0000 
     31 H31        31.0181   -3.7407  121.8990 H         1 UNK         0.0000 
     32 H32        34.5196   -6.5385  122.2456 H         1 UNK         0.0000 
     33 H33        35.9220   -6.3985  124.2464 H         1 UNK         0.0000 
     34 H34        35.2280   -5.0438  126.1607 H         1 UNK         0.0000 
     35 H35        30.8906   -3.5606  125.9711 H         1 UNK         0.0000 
     36 H36        30.1550   -2.1759  127.8117 H         1 UNK         0.0000 
     37 H37        35.2013   -1.4857  129.5503 H         1 UNK         0.0000 
     38 H38        29.7807   -0.2167  128.5117 H         1 UNK         0.0000 
     39 H39        26.9641    1.8923  129.6203 H         1 UNK         0.0000 
     40 H40        27.7243    1.1048  128.2177 H         1 UNK         0.0000 
     41 H41        25.6232    0.1157  128.8301 H         1 UNK         0.0000 
     42 H42        26.8211   -0.9914  128.9674 H         1 UNK         0.0000 
     43 H43        27.9617    1.6769  131.8927 H         1 UNK         0.0000 
     44 H44        29.9976    1.2774  133.2144 H         1 UNK         0.0000 
     45 H45        31.9106    0.1040  132.2249 H         1 UNK         0.0000 
     46 H46        35.0163   -3.1290  127.1688 H         1 UNK         0.0000 
     47 H47        31.7204   -3.8206  124.0087 H         1 UNK         0.0000 
     48 H48        26.1885   -0.2917  130.3131 H         1 UNK         0.0000 
@<TRIPOS>BOND
     1    1    2 1    
     2    1   27 1    
     3    1   28 1    
     4    1   29 1    
     5    2    3 1    
     6    2   30 1    
     7    2   31 1    
     8    3    4 1    
     9    4   26 ar   
    10    4    5 ar   
    11    5    6 ar   
    12    5   32 1    
    13    6    7 ar   
    14    6   33 1    
    15    7    8 ar   
    16    7   34 1    
    17    8    9 1    
    18    8   26 ar   
    19    9   25 ar   
    20    9   10 ar   
    21   10   11 ar   
    22   10   35 1    
    23   11   12 ar   
    24   11   36 1    
    25   12   16 ar   
    26   12   13 ar   
    27   13   14 ar   
    28   13   25 ar   
    29   14   15 ar   
    30   14   37 1    
    31   15   16 ar   
    32   16   17 1    
    33   17   24 ar   
    34   17   18 ar   
    35   18   19 ar   
    36   18   38 1    
    37   19   20 1    
    38   19   22 ar   
    39   20   21 1    
    40   20   39 1    
    41   20   40 1    
    42   21   41 1    
    43   21   42 1    
    44   21   48 1    
    45   22   23 ar   
    46   22   43 1    
    47   23   24 ar   
    48   23   44 1    
    49   24   45 1    
    50   25   46 1    
    51   26   47 1    
@<TRIPOS>SUBSTRUCTURE
     1 UNK         1 GROUP             0       ****    0 ROOT    
