@<TRIPOS>MOLECULE
/home/yujie/leadopt/data/result/selection/FGFR2/lig_41.sdf:1
50   54    1
SMALL
USER_CHARGES


@<TRIPOS>ATOM
      1 O1         34.6025   -6.5298  122.0943 O.3       1 UNK         0.0000 
      2 C2         34.2228   -5.7623  123.1550 C.ar      1 UNK         0.0000 
      3 C3         34.7287   -6.0275  124.4236 C.ar      1 UNK         0.0000 
      4 C4         34.3122   -5.2577  125.5070 C.ar      1 UNK         0.0000 
      5 C5         33.3169   -4.7277  122.9626 C.ar      1 UNK         0.0000 
      6 C6         32.9174   -3.9418  124.0387 C.ar      1 UNK         0.0000 
      7 F7         32.0647   -2.9158  123.8082 F         1 UNK         0.0000 
      8 C8         33.4025   -4.2046  125.3318 C.ar      1 UNK         0.0000 
      9 C9         32.9779   -3.3864  126.4969 C.ar      1 UNK         0.0000 
     10 C10        31.6262   -3.0701  126.6835 C.ar      1 UNK         0.0000 
     11 C11        31.1922   -2.2701  127.7378 C.ar      1 UNK         0.0000 
     12 C12        32.1508   -1.7298  128.6085 C.ar      1 UNK         0.0000 
     13 C13        33.5107   -2.0912  128.4283 C.ar      1 UNK         0.0000 
     14 N14        34.2025   -1.4121  129.4010 N.pl3     1 UNK         0.0000 
     15 N15        33.3864   -0.6744  130.1626 N.2       1 UNK         0.0000 
     16 C16        32.1582   -0.8339  129.7325 C.ar      1 UNK         0.0000 
     17 C17        31.0159   -0.1113  130.3820 C.ar      1 UNK         0.0000 
     18 C18        31.0997    0.2702  131.7253 C.ar      1 UNK         0.0000 
     19 C19        30.0365    0.9127  132.3472 C.ar      1 UNK         0.0000 
     20 C20        28.8589    1.1920  131.6446 C.ar      1 UNK         0.0000 
     21 N21        27.7891    1.8426  132.2540 N.pl3     1 UNK         0.0000 
     22 C22        27.6734    1.9358  133.7212 C.3       1 UNK         0.0000 
     23 C23        26.2760    2.3531  134.2316 C.3       1 UNK         0.0000 
     24 N24        25.8045    3.5717  133.5887 N.3       1 UNK         0.0000 
     25 C25        25.8035    3.4250  132.1399 C.3       1 UNK         0.0000 
     26 C26        27.1952    3.0246  131.6017 C.3       1 UNK         0.0000 
     27 C27        28.7758    0.8047  130.3022 C.ar      1 UNK         0.0000 
     28 C28        29.8418    0.1636  129.6767 C.ar      1 UNK         0.0000 
     29 C29        33.9429   -2.9298  127.4019 C.ar      1 UNK         0.0000 
     30 H30        35.3319   -7.1451  122.3100 H         1 UNK         0.0000 
     31 H31        35.4320   -6.8357  124.5707 H         1 UNK         0.0000 
     32 H32        34.6996   -5.4866  126.4895 H         1 UNK         0.0000 
     33 H33        32.9308   -4.5298  121.9732 H         1 UNK         0.0000 
     34 H34        30.8883   -3.4580  125.9956 H         1 UNK         0.0000 
     35 H35        30.1404   -2.0598  127.8524 H         1 UNK         0.0000 
     36 H36        35.2031   -1.4205  129.5773 H         1 UNK         0.0000 
     37 H37        31.9917    0.0688  132.2994 H         1 UNK         0.0000 
     38 H38        30.1497    1.2027  133.3802 H         1 UNK         0.0000 
     39 H39        27.9260    0.9732  134.1677 H         1 UNK         0.0000 
     40 H40        28.3936    2.6702  134.0841 H         1 UNK         0.0000 
     41 H41        26.3221    2.5194  135.3083 H         1 UNK         0.0000 
     42 H42        25.5636    1.5458  134.0536 H         1 UNK         0.0000 
     43 H43        26.3029    4.3947  133.8992 H         1 UNK         0.0000 
     44 H44        25.5039    4.3727  131.6911 H         1 UNK         0.0000 
     45 H45        25.0665    2.6751  131.8478 H         1 UNK         0.0000 
     46 H46        27.8666    3.8701  131.7626 H         1 UNK         0.0000 
     47 H47        27.1161    2.8819  130.5248 H         1 UNK         0.0000 
     48 H48        27.8775    0.9918  129.7335 H         1 UNK         0.0000 
     49 H49        29.7470   -0.0960  128.6350 H         1 UNK         0.0000 
     50 H50        34.9901   -3.1619  127.2733 H         1 UNK         0.0000 
@<TRIPOS>BOND
     1    1    2 1    
     2    1   30 1    
     3    2    3 ar   
     4    2    5 ar   
     5    3    4 ar   
     6    3   31 1    
     7    4    8 ar   
     8    4   32 1    
     9    5    6 ar   
    10    5   33 1    
    11    6    7 1    
    12    6    8 ar   
    13    8    9 1    
    14    9   29 ar   
    15    9   10 ar   
    16   10   11 ar   
    17   10   34 1    
    18   11   12 ar   
    19   11   35 1    
    20   12   16 ar   
    21   12   13 ar   
    22   13   14 ar   
    23   13   29 ar   
    24   14   15 ar   
    25   14   36 1    
    26   15   16 ar   
    27   16   17 1    
    28   17   28 ar   
    29   17   18 ar   
    30   18   19 ar   
    31   18   37 1    
    32   19   20 ar   
    33   19   38 1    
    34   20   21 1    
    35   20   27 ar   
    36   21   26 1    
    37   21   22 1    
    38   22   23 1    
    39   22   39 1    
    40   22   40 1    
    41   23   24 1    
    42   23   41 1    
    43   23   42 1    
    44   24   25 1    
    45   24   43 1    
    46   25   26 1    
    47   25   44 1    
    48   25   45 1    
    49   26   46 1    
    50   26   47 1    
    51   27   28 ar   
    52   27   48 1    
    53   28   49 1    
    54   29   50 1    
@<TRIPOS>SUBSTRUCTURE
     1 UNK         1 GROUP             0       ****    0 ROOT    
