6e
                    3D
 Schrodinger Suite 2021-2.
 52 54  0  0  1  0            999 V2000
   18.0699  -13.1135   21.6990 N   0  0  0  0  0  0
   17.8629  -11.8070   21.0413 C   0  0  2  0  0  0
   17.2450  -13.6417   22.6447 C   0  0  0  0  0  0
   16.2544  -13.0327   23.0448 O   0  0  0  0  0  0
   16.4549  -11.6238   20.4410 C   0  0  0  0  0  0
   15.9188  -12.5514   19.8245 O   0  0  0  0  0  0
   18.9295  -11.7239   19.9402 C   0  0  0  0  0  0
   17.5253  -15.0281   23.2657 C   0  0  2  0  0  0
   15.8745  -10.4296   20.6441 N   0  0  0  0  0  0
   20.0048  -12.7213   20.3390 C   0  0  0  0  0  0
   16.2550  -15.7800   23.3480 N   0  3  0  0  0  0
   18.1493  -14.9215   24.6830 C   0  0  0  0  0  0
   14.5441  -10.0585   20.1928 C   0  0  0  0  0  0
   19.3050  -13.7441   21.2276 C   0  0  0  0  0  0
   19.5771  -14.4073   24.7618 C   0  0  0  0  0  0
   13.4714  -10.4175   21.1966 C   0  0  0  0  0  0
   19.8544  -13.1464   25.3313 C   0  0  0  0  0  0
   13.0686   -9.4992   22.1832 C   0  0  0  0  0  0
   21.1696  -12.6611   25.3990 C   0  0  0  0  0  0
   12.0376   -9.8286   23.0944 C   0  0  0  0  0  0
   22.2313  -13.4390   24.9019 C   0  0  0  0  0  0
   11.4433  -11.1098   23.0673 C   0  0  0  0  0  0
   21.9727  -14.7112   24.3525 C   0  0  0  0  0  0
   11.8989  -12.0238   22.0937 C   0  0  0  0  0  0
   20.6495  -15.1961   24.2891 C   0  0  0  0  0  0
   12.8779  -11.6880   21.1696 C   0  0  0  0  0  0
   18.0459  -11.0215   21.7804 H   0  0  0  0  0  0
   19.3335  -10.7138   19.8447 H   0  0  0  0  0  0
   18.5214  -12.0127   18.9683 H   0  0  0  0  0  0
   18.1819  -15.6215   22.6284 H   0  0  0  0  0  0
   16.3928   -9.7188   21.1558 H   0  0  0  0  0  0
   20.7810  -12.2148   20.9159 H   0  0  0  0  0  0
   20.4842  -13.1863   19.4775 H   0  0  0  0  0  0
   15.9084  -15.9295   22.4067 H   0  0  0  0  0  0
   16.3982  -16.6682   23.8021 H   0  0  0  0  0  0
   18.1501  -15.9076   25.1486 H   0  0  0  0  0  0
   17.5171  -14.2950   25.3166 H   0  0  0  0  0  0
   14.5262   -8.9827   20.0273 H   0  0  0  0  0  0
   14.3107  -10.5165   19.2257 H   0  0  0  0  0  0
   19.9546  -14.0414   22.0446 H   0  0  0  0  0  0
   19.0529  -14.6283   20.6462 H   0  0  0  0  0  0
   19.0550  -12.5482   25.7389 H   0  0  0  0  0  0
   13.7416   -8.3437   22.3465 F   0  0  0  0  0  0
   21.3662  -11.6990   25.8463 H   0  0  0  0  0  0
   11.7460   -9.1048   23.8390 H   0  0  0  0  0  0
   23.2447  -13.0710   24.9701 H   0  0  0  0  0  0
   22.7881  -15.3203   23.9925 H   0  0  0  0  0  0
   11.4545  -13.6395   21.8414 Cl  0  0  0  0  0  0
   20.4562  -16.1692   23.8619 H   0  0  0  0  0  0
   13.1972  -12.4105   20.4374 H   0  0  0  0  0  0
   10.6701  -11.3778   23.7689 H   0  0  0  0  0  0
   15.5762  -15.2144   23.8522 H   0  0  0  0  0  0
  1  2  1  0  0  0
  1 14  1  0  0  0
  1  3  1  0  0  0
  2  5  1  0  0  0
  2  7  1  0  0  0
  2 27  1  0  0  0
  3  8  1  0  0  0
  3  4  2  0  0  0
  5  6  2  0  0  0
  5  9  1  0  0  0
  7 10  1  0  0  0
  7 28  1  0  0  0
  7 29  1  0  0  0
  8 11  1  0  0  0
  8 12  1  0  0  0
  8 30  1  0  0  0
  9 13  1  0  0  0
  9 31  1  0  0  0
 10 14  1  0  0  0
 10 32  1  0  0  0
 10 33  1  0  0  0
 11 34  1  0  0  0
 11 35  1  0  0  0
 11 52  1  0  0  0
 12 15  1  0  0  0
 12 36  1  0  0  0
 12 37  1  0  0  0
 13 16  1  0  0  0
 13 38  1  0  0  0
 13 39  1  0  0  0
 14 40  1  0  0  0
 14 41  1  0  0  0
 15 17  1  0  0  0
 15 25  2  0  0  0
 16 18  1  0  0  0
 16 26  2  0  0  0
 17 19  2  0  0  0
 17 42  1  0  0  0
 18 20  2  0  0  0
 18 43  1  0  0  0
 19 21  1  0  0  0
 19 44  1  0  0  0
 20 22  1  0  0  0
 20 45  1  0  0  0
 21 23  2  0  0  0
 21 46  1  0  0  0
 22 24  2  0  0  0
 22 51  1  0  0  0
 23 25  1  0  0  0
 23 47  1  0  0  0
 24 26  1  0  0  0
 24 48  1  0  0  0
 25 49  1  0  0  0
 26 50  1  0  0  0
M  CHG  1  11   1
M  END
> <s_m_entry_id>
608

> <s_m_entry_name>
Thrombin_6e.1

> <s_m_Source_Path>
C:\Users\yujiethinkpad\Desktop\05A\Thrombin

> <s_m_Source_File>
Thrombin_6e.sdf

> <i_m_Source_File_Index>
1

> <s_i_glide_gridfile>
glide-grid_Thro

> <s_lp_Force_Field>
S-OPLS

> <s_lp_Variant>
6e-1

> <r_i_docking_score>
-10.0348188473622

> <r_i_glide_ecoul>
-14.8347692489624

> <r_i_glide_einternal>
-2.23177281100106e-07

> <r_i_glide_emodel>
-70.610411825568

> <r_i_glide_energy>
-48.3556203842163

> <r_i_glide_erotb>
0.95880746660649

> <r_i_glide_esite>
-0.0188345422060966

> <r_i_glide_evdw>
-33.5208511352539

> <r_i_glide_gscore>
-10.2068188473622

> <r_i_glide_hbond>
-0.864

> <r_i_glide_ligand_efficiency>
-0.358386387405793

> <r_i_glide_ligand_efficiency_ln>
-2.31633082505525

> <r_i_glide_ligand_efficiency_sa>
-1.08827215045801

> <r_i_glide_lipo>
-4.82195944177108

> <r_i_glide_metal>
0

> <r_i_glide_rewards>
-1.55957438588446

> <r_lp_Energy>
37.962912

> <i_i_glide_confnum>
6

> <i_i_glide_lignum>
11

> <i_i_glide_posenum>
8

> <i_i_glide_rotatable_bonds>
8

> <i_lp_mmshare_version>
54117

> <b_lp_Chiralities_Consistent>
1

> <r_i_glide_eff_state_penalty>
0.172

> <s_epik_input>
W2NIXTFbY0hdW2NIXVtjSF1bY0hdYzFbQ0gyXVtDQEBIXShbTkgyXSlDKD1PKU4yW0NAQEhdKFtDSDJdW0NIMl1bQ0gyXTIpQyg9TylbTkhdW0NIMl1jM2MoRilbY0hdW2NIXWMoQ2wpW2NIXTM=

> <s_epik_cmdline>
J2VwaWtfcHl0aG9uJywgJy1waCcsICc3LjAnLCAnLXRuJywgJzgnLCAnLW1hJywgJzUwMCcsICctaW1hZScsICc8aW5maWxlLm1hZT4nLCAnLW9tYWUnLCAnPG91dGZpbGUubWFlPic=

> <r_epik_Ionization_Penalty>
  0.1825

> <r_epik_Ionization_Penalty_Charging>
  0.1825

> <r_epik_Ionization_Penalty_Neutral>
  0.0000

> <r_epik_State_Penalty>
  0.1720

> <r_epik_Charging_Adjusted_Penalty>
0.354512576374698

> <i_epik_Tot_Q>
1

> <i_epik_Tot_abs_Q>
1

> <s_m_source_file>
ligprep_Thro.maegz

> <i_m_source_file_index>
6

> <i_f3d_flags>
0

> <s_m_job_name>
glide-dock_SP_Thro_other

> <r_user_dG.exp>
-8.91

> <r_m_Molecular_weight>
404.89573

> <r_i_glide_rmsd>
0.0379799321339449

> <s_glide_core_constrain_type>
snapped_core_restrain

> <s_m_subgroup_title>
glide-dock_SP_Thro_other_lib1

> <s_m_subgroupid>
glide-dock_SP_Thro_other_lib1

> <b_m_subgroup_collapsed>
0

$$$$
