7a
                    3D
 Schrodinger Suite 2021-2.
 58 60  0  0  1  0            999 V2000
   18.0994  -13.1268   21.7104 N   0  0  0  0  0  0
   17.9088  -11.8103   21.0609 C   0  0  2  0  0  0
   17.2654  -13.6566   22.6450 C   0  0  0  0  0  0
   16.2701  -13.0499   23.0448 O   0  0  0  0  0  0
   16.5038  -11.6357   20.4415 C   0  0  0  0  0  0
   15.9938  -12.5608   19.8024 O   0  0  0  0  0  0
   18.9727  -11.7362   19.9531 C   0  0  0  0  0  0
   17.5335  -15.0497   23.2608 C   0  0  2  0  0  0
   15.8988  -10.4562   20.6449 N   0  0  0  0  0  0
   20.0386  -12.7391   20.3494 C   0  0  0  0  0  0
   16.2572  -15.7899   23.3453 N   0  3  0  0  0  0
   18.1546  -14.9659   24.6785 C   0  0  0  0  0  0
   14.5590  -10.0982   20.1972 C   0  0  0  0  0  0
   19.3243  -13.7659   21.2241 C   0  0  0  0  0  0
   19.5732  -14.4276   24.7707 C   0  0  0  0  0  0
   13.4697  -10.4776   21.1917 C   0  0  0  0  0  0
   19.8163  -13.1646   25.3467 C   0  0  0  0  0  0
   12.8311  -11.7450   21.1892 C   0  0  0  0  0  0
   21.1214  -12.6462   25.4152 C   0  0  0  0  0  0
   11.8304  -12.0682   22.1246 C   0  0  0  0  0  0
   22.2015  -13.4018   24.9237 C   0  0  0  0  0  0
   11.4355  -11.1073   23.0454 C   0  0  0  0  0  0
   21.9717  -14.6786   24.3755 C   0  0  0  0  0  0
   12.0464   -9.8434   23.0599 C   0  0  0  0  0  0
   20.6620  -15.1941   24.3044 C   0  0  0  0  0  0
   13.0760   -9.5252   22.1529 C   0  0  0  0  0  0
   18.0944  -11.0352   21.8076 H   0  0  0  0  0  0
   19.3784  -10.7303   19.8447 H   0  0  0  0  0  0
   18.5633  -12.0271   18.9837 H   0  0  0  0  0  0
   18.1828  -15.6401   22.6150 H   0  0  0  0  0  0
   16.4078   -9.7488   21.1647 H   0  0  0  0  0  0
   20.8008  -12.2320   20.9435 H   0  0  0  0  0  0
   20.5385  -13.1901   19.4910 H   0  0  0  0  0  0
   15.9056  -15.9252   22.4043 H   0  0  0  0  0  0
   16.3812  -16.6798   23.8031 H   0  0  0  0  0  0
   18.1738  -15.9622   25.1221 H   0  0  0  0  0  0
   17.5086  -14.3744   25.3301 H   0  0  0  0  0  0
   14.5401   -9.0159   20.0691 H   0  0  0  0  0  0
   14.3563  -10.5044   19.2071 H   0  0  0  0  0  0
   19.9780  -14.0884   22.0287 H   0  0  0  0  0  0
   19.0555  -14.6402   20.6295 H   0  0  0  0  0  0
   18.9993  -12.5923   25.7508 H   0  0  0  0  0  0
   21.2925  -11.6726   25.8502 H   0  0  0  0  0  0
   11.3453  -13.0340   22.1187 H   0  0  0  0  0  0
   23.2065  -13.0093   24.9825 H   0  0  0  0  0  0
   22.8027  -15.2662   24.0142 H   0  0  0  0  0  0
   20.4981  -16.1732   23.8794 H   0  0  0  0  0  0
   13.5609   -8.5614   22.1994 H   0  0  0  0  0  0
   10.6579  -11.3562   23.7532 H   0  0  0  0  0  0
   13.1041  -12.8206   20.1511 C   0  0  0  0  0  0
   12.1905  -13.3763   19.9359 H   0  0  0  0  0  0
   13.4480  -12.4291   19.1967 H   0  0  0  0  0  0
   13.8315  -13.5328   20.5382 H   0  0  0  0  0  0
   11.5988   -8.9932   24.1204 C   0  0  0  0  0  0
   11.6401   -8.1439   23.4449 H   0  0  0  0  0  0
   10.5879   -9.1892   24.4807 H   0  0  0  0  0  0
   12.3186   -8.9931   24.9354 H   0  0  0  0  0  0
   15.5818  -15.2160   23.8439 H   0  0  0  0  0  0
  1  2  1  0  0  0
  1 14  1  0  0  0
  1  3  1  0  0  0
  2  5  1  0  0  0
  2  7  1  0  0  0
  2 27  1  0  0  0
  3  8  1  0  0  0
  3  4  2  0  0  0
  5  6  2  0  0  0
  5  9  1  0  0  0
  7 10  1  0  0  0
  7 28  1  0  0  0
  7 29  1  0  0  0
  8 11  1  0  0  0
  8 12  1  0  0  0
  8 30  1  0  0  0
  9 13  1  0  0  0
  9 31  1  0  0  0
 10 14  1  0  0  0
 10 32  1  0  0  0
 10 33  1  0  0  0
 11 34  1  0  0  0
 11 35  1  0  0  0
 11 58  1  0  0  0
 12 15  1  0  0  0
 12 36  1  0  0  0
 12 37  1  0  0  0
 13 16  1  0  0  0
 13 38  1  0  0  0
 13 39  1  0  0  0
 14 40  1  0  0  0
 14 41  1  0  0  0
 15 17  1  0  0  0
 15 25  2  0  0  0
 16 18  1  0  0  0
 16 26  2  0  0  0
 17 19  2  0  0  0
 17 42  1  0  0  0
 18 20  2  0  0  0
 18 50  1  0  0  0
 19 21  1  0  0  0
 19 43  1  0  0  0
 20 22  1  0  0  0
 20 44  1  0  0  0
 21 23  2  0  0  0
 21 45  1  0  0  0
 22 24  2  0  0  0
 22 49  1  0  0  0
 23 25  1  0  0  0
 23 46  1  0  0  0
 24 26  1  0  0  0
 24 54  1  0  0  0
 25 47  1  0  0  0
 26 48  1  0  0  0
 50 51  1  0  0  0
 50 52  1  0  0  0
 50 53  1  0  0  0
 54 55  1  0  0  0
 54 56  1  0  0  0
 54 57  1  0  0  0
M  CHG  1  11   1
M  END
> <s_m_entry_id>
605

> <s_m_entry_name>
Thrombin_7a.1

> <s_m_Source_Path>
C:\Users\yujiethinkpad\Desktop\05A\Thrombin

> <s_m_Source_File>
Thrombin_7a.sdf

> <i_m_Source_File_Index>
1

> <s_i_glide_gridfile>
glide-grid_Thro

> <s_lp_Force_Field>
S-OPLS

> <s_lp_Variant>
7a-1

> <r_i_docking_score>
-10.6022750042937

> <r_i_glide_ecoul>
-15.9721870422363

> <r_i_glide_einternal>
1.01372484095918e-06

> <r_i_glide_emodel>
-71.5161207726794

> <r_i_glide_energy>
-55.3260765075684

> <r_i_glide_erotb>
1.07201650913422

> <r_i_glide_esite>
-0.0184267368287959

> <r_i_glide_evdw>
-39.353889465332

> <r_i_glide_gscore>
-10.7742750042937

> <r_i_glide_hbond>
-0.864

> <r_i_glide_ligand_efficiency>
-0.378652678724775

> <r_i_glide_ligand_efficiency_ln>
-2.44731636731178

> <r_i_glide_ligand_efficiency_sa>
-1.14981254710969

> <r_i_glide_lipo>
-5.01496939731921

> <r_i_glide_metal>
0

> <r_i_glide_rewards>
-1.58537284967786

> <r_lp_Energy>
37.318722

> <i_i_glide_confnum>
8

> <i_i_glide_lignum>
13

> <i_i_glide_posenum>
8

> <i_i_glide_rotatable_bonds>
8

> <i_lp_mmshare_version>
54117

> <b_lp_Chiralities_Consistent>
1

> <r_i_glide_eff_state_penalty>
0.172

> <s_epik_input>
W2NIXTFbY0hdW2NIXVtjSF1bY0hdYzFbQ0gyXVtDQEBIXShbTkgyXSlDKD1PKU4yW0NAQEhdKFtDSDJdW0NIMl1bQ0gyXTIpQyg9TylbTkhdW0NIMl1jM2MoW0NIM10pW2NIXVtjSF1jKFtjSF0zKVtDSDNd

> <s_epik_cmdline>
J2VwaWtfcHl0aG9uJywgJy1waCcsICc3LjAnLCAnLXRuJywgJzgnLCAnLW1hJywgJzUwMCcsICctaW1hZScsICc8aW5maWxlLm1hZT4nLCAnLW9tYWUnLCAnPG91dGZpbGUubWFlPic=

> <r_epik_Ionization_Penalty>
  0.1825

> <r_epik_Ionization_Penalty_Charging>
  0.1825

> <r_epik_Ionization_Penalty_Neutral>
  0.0000

> <r_epik_State_Penalty>
  0.1720

> <r_epik_Charging_Adjusted_Penalty>
0.354512576374698

> <i_epik_Tot_Q>
1

> <i_epik_Tot_abs_Q>
1

> <s_m_source_file>
ligprep_Thro.maegz

> <i_m_source_file_index>
7

> <i_f3d_flags>
0

> <s_m_job_name>
glide-dock_SP_Thro_other

> <r_user_dG.exp>
-8.22

> <r_m_Molecular_weight>
380.51445

> <r_i_glide_rmsd>
0.0425242392982229

> <s_glide_core_constrain_type>
snapped_core_restrain

> <s_m_subgroup_title>
glide-dock_SP_Thro_other_lib1

> <s_m_subgroupid>
glide-dock_SP_Thro_other_lib1

> <b_m_subgroup_collapsed>
0

$$$$
