ejm_31
                    3D
 Schrodinger Suite 2021-2.
 32 33  0  0  1  0            999 V2000
   -2.1338   19.5622  -30.3395 C   0  0  0  0  0  0
   -3.3166   19.7278  -31.1048 C   0  0  0  0  0  0
   -4.0666   20.9238  -30.9695 C   0  0  0  0  0  0
   -3.5554   21.9752  -30.1546 C   0  0  0  0  0  0
   -2.3390   21.8281  -29.4247 C   0  0  0  0  0  0
   -1.6463   20.6054  -29.5057 C   0  0  0  0  0  0
   -1.7044   23.0603  -28.3859 Cl  0  0  0  0  0  0
   -4.3231   23.2596  -30.0497 C   0  0  0  0  0  0
   -5.1976   23.4970  -29.2217 O   0  0  0  0  0  0
   -3.9447   24.1404  -30.9764 N   0  0  0  0  0  0
   -4.4945   25.4824  -31.1451 C   0  0  0  0  0  0
   -5.7418   25.8098  -30.6138 C   0  0  0  0  0  0
   -6.2466   27.0974  -30.7874 C   0  0  0  0  0  0
   -5.5631   28.0564  -31.4615 N   0  0  0  0  0  0
   -4.3495   27.7241  -31.9739 C   0  0  0  0  0  0
   -3.7821   26.4577  -31.8396 C   0  0  0  0  0  0
   -3.6328   28.7719  -32.6950 N   0  0  0  0  0  0
   -3.8581   30.0814  -32.5839 C   0  0  0  0  0  0
   -4.7165   30.5496  -31.8418 O   0  0  0  0  0  0
   -2.9449   30.8813  -33.4649 C   0  0  0  0  0  0
   -5.6410   21.0048  -31.7107 Cl  0  0  0  0  0  0
   -2.2860   30.2073  -34.0124 H   0  0  0  0  0  0
   -1.5871   18.6313  -30.3842 H   0  0  0  0  0  0
   -3.6361   18.9477  -31.7804 H   0  0  0  0  0  0
   -0.7421   20.4605  -28.9326 H   0  0  0  0  0  0
   -3.2315   23.9871  -31.6749 H   0  0  0  0  0  0
   -6.3148   25.0708  -30.0705 H   0  0  0  0  0  0
   -7.2137   27.3695  -30.3816 H   0  0  0  0  0  0
   -2.8121   26.2391  -32.2649 H   0  0  0  0  0  0
   -2.9387   28.3448  -33.2916 H   0  0  0  0  0  0
   -2.3470   31.5554  -32.8517 H   0  0  0  0  0  0
   -3.5382   31.4623  -34.1709 H   0  0  0  0  0  0
  1  2  1  0  0  0
  1  6  2  0  0  0
  1 23  1  0  0  0
  2  3  2  0  0  0
  2 24  1  0  0  0
  3  4  1  0  0  0
  3 21  1  0  0  0
  4  5  2  0  0  0
  4  8  1  0  0  0
  5  6  1  0  0  0
  5  7  1  0  0  0
  6 25  1  0  0  0
  8  9  2  0  0  0
  8 10  1  0  0  0
 10 11  1  0  0  0
 10 26  1  0  0  0
 11 12  1  0  0  0
 11 16  2  0  0  0
 12 13  2  0  0  0
 12 27  1  0  0  0
 13 14  1  0  0  0
 13 28  1  0  0  0
 14 15  2  0  0  0
 15 16  1  0  0  0
 15 17  1  0  0  0
 16 29  1  0  0  0
 17 18  1  0  0  0
 17 30  1  0  0  0
 18 19  2  0  0  0
 18 20  1  0  0  0
 20 22  1  0  0  0
 20 31  1  0  0  0
 20 32  1  0  0  0
M  END
> <s_m_entry_id>
734

> <s_m_entry_name>
Tyk2_ejm_31.1

> <r_user_dG.exp>
-9.54

> <r_m_Molecular_weight>
324.16867

> <s_m_Source_Path>
C:\Users\yujiethinkpad\Desktop\05A\Tyk2

> <s_m_Source_File>
Tyk2_ejm_31.sdf

> <i_m_Source_File_Index>
1

> <s_m_job_name>
align_ligands_0220

> <i_phase_Input_Structure_Number>
1

> <i_phase_Structure_Number>
1

> <r_phase_Similarity_to_Reference>
0.599988889834107

> <i_phase_Reference_Structure>
16

> <s_phase_Alignment_Method>
snapped core

> <s_phase_Alignment_Reason>


> <s_phase_Core_SMARTS>
a1aaaaa1

> <s_f3d_frozen_atoms>
4 3 2 1 6 5 21 24 23 25 7

> <s_fepmapper_entryid>
2

> <i_fepmapper_bias>
0

> <i_fepmapper_affinity>
1

> <r_fepmapper_exp_dG>
-9.54

> <i_fepmapper_unit>
1

> <s_m_subgroup_title>
align_ligands_0220

> <s_m_subgroupid>
align_ligands_0220

> <b_m_subgroup_collapsed>
0

$$$$
