jmc_27
                    3D
 Schrodinger Suite 2021-2.
 36 38  0  0  1  0            999 V2000
   -1.2972   21.8709  -27.2907 C   0  0  0  0  0  0
   -0.9197   21.9873  -28.6299 C   0  0  0  0  0  0
   -1.8593   22.3632  -29.5905 C   0  0  0  0  0  0
   -3.1765   22.6231  -29.2133 C   0  0  0  0  0  0
   -3.5554   22.5074  -27.8761 C   0  0  0  0  0  0
   -2.6165   22.1315  -26.9149 C   0  0  0  0  0  0
   -5.1854   22.8292  -27.4105 Cl  0  0  0  0  0  0
   -4.1863   23.0273  -30.2463 C   0  0  0  0  0  0
   -4.8962   22.2550  -30.8837 O   0  0  0  0  0  0
   -4.2326   24.3505  -30.4033 N   0  0  0  0  0  0
   -5.1074   25.0644  -31.3289 C   0  0  0  0  0  0
   -5.7163   24.4336  -32.4595 C   0  0  0  0  0  0
   -6.5353   25.1374  -33.2838 C   0  0  0  0  0  0
   -6.8096   26.4965  -33.0995 N   0  0  0  0  0  0
   -6.2196   27.1613  -32.0262 C   0  0  0  0  0  0
   -5.4213   26.4520  -31.1744 C   0  0  0  0  0  0
   -6.4809   28.5467  -31.8567 N   0  0  0  0  0  0
   -5.6488   29.4426  -31.2574 C   0  0  0  0  0  0
   -4.5322   29.1490  -30.8204 O   0  0  0  0  0  0
   -6.1429   30.8549  -31.1841 C   0  0  1  0  0  0
   -5.6707   31.7313  -30.0314 C   0  0  0  0  0  0
   -5.1305   31.9653  -31.4243 C   0  0  1  0  0  0
   -3.4377   31.4680  -31.7547 Cl  0  0  0  0  0  0
   -1.3916   22.5067  -31.2451 Cl  0  0  0  0  0  0
   -7.1645   30.9808  -31.5289 H   0  0  0  0  0  0
   -5.4713   32.8598  -31.9427 H   0  0  0  0  0  0
   -0.5693   21.5796  -26.5461 H   0  0  0  0  0  0
    0.1005   21.7864  -28.9248 H   0  0  0  0  0  0
   -2.9126   22.0425  -25.8793 H   0  0  0  0  0  0
   -3.6681   25.0208  -29.9012 H   0  0  0  0  0  0
   -5.5259   23.3899  -32.6624 H   0  0  0  0  0  0
   -7.0063   24.6484  -34.1239 H   0  0  0  0  0  0
   -5.0177   27.0069  -30.3404 H   0  0  0  0  0  0
   -7.3467   28.9432  -32.1953 H   0  0  0  0  0  0
   -6.5250   32.2500  -29.5950 H   0  0  0  0  0  0
   -5.1965   31.1091  -29.2713 H   0  0  0  0  0  0
  1  2  1  0  0  0
  1  6  2  0  0  0
  1 27  1  0  0  0
  2  3  2  0  0  0
  2 28  1  0  0  0
  3  4  1  0  0  0
  3 24  1  0  0  0
  4  5  2  0  0  0
  4  8  1  0  0  0
  5  6  1  0  0  0
  5  7  1  0  0  0
  6 29  1  0  0  0
  8  9  2  0  0  0
  8 10  1  0  0  0
 10 11  1  0  0  0
 10 30  1  0  0  0
 11 12  1  0  0  0
 11 16  2  0  0  0
 12 13  2  0  0  0
 12 31  1  0  0  0
 13 14  1  0  0  0
 13 32  1  0  0  0
 14 15  2  0  0  0
 15 16  1  0  0  0
 15 17  1  0  0  0
 16 33  1  0  0  0
 17 18  1  0  0  0
 17 34  1  0  0  0
 18 19  2  0  0  0
 18 20  1  0  0  0
 20 21  1  0  0  0
 20 22  1  0  0  0
 20 25  1  0  0  0
 21 22  1  0  0  0
 21 35  1  0  0  0
 21 36  1  0  0  0
 22 23  1  0  0  0
 22 26  1  0  0  0
M  END
> <i_m_stars>
2

> <s_m_entry_id>
739

> <s_m_entry_name>
Tyk2_jmc_27.1

> <r_user_dG.exp>
-11.28

> <r_m_Molecular_weight>
384.65194

> <s_m_Source_Path>
C:\Users\yujiethinkpad\Desktop\05A\Tyk2

> <s_m_Source_File>
Tyk2_jmc_27.sdf

> <i_m_Source_File_Index>
1

> <s_m_job_name>
align_ligands_0220

> <i_phase_Input_Structure_Number>
6

> <i_phase_Structure_Number>
6

> <r_phase_Similarity_to_Reference>
0.68183161619339

> <i_phase_Reference_Structure>
16

> <s_phase_Alignment_Method>
snapped core

> <s_phase_Alignment_Reason>


> <s_phase_Core_SMARTS>
A1AA1A(=A)Aa2aaaaa2

> <s_f3d_frozen_atoms>
21 22 20 18 19 17 15 14 13 12 11 16 35 36 23 26 25 19 34 32 31 33

> <s_fepmapper_entryid>
12

> <i_fepmapper_bias>
0

> <i_fepmapper_affinity>
1

> <r_fepmapper_exp_dG>
-11.28

> <i_fepmapper_unit>
1

> <s_m_subgroup_title>
align_ligands_0220

> <s_m_subgroupid>
align_ligands_0220

> <b_m_subgroup_collapsed>
0

$$$$
