/home/yujie/leadopt/data/result/selection/BCL6/lig_11e.sdf:1
                    3D
 Schrodinger Suite 2021-2.
 46 49  0  0  1  0            999 V2000
  -21.8415    8.1570   19.8211 C   0  0  0  0  0  0
  -22.3269    9.5191   19.5776 N   0  0  0  0  0  0
  -21.7450   10.5429   20.2505 C   0  0  0  0  0  0
  -20.7919   10.3722   21.0008 O   0  0  0  0  0  0
  -22.3056   11.8694   20.0424 C   0  0  0  0  0  0
  -23.2819   12.1105   19.1373 C   0  0  0  0  0  0
  -23.7332   13.3880   18.8459 N   0  0  0  0  0  0
  -22.9720   14.6014   19.0943 C   0  0  2  0  0  0
  -22.9575   14.9620   20.5774 C   0  0  0  0  0  0
  -22.7317   13.7350   21.4541 C   0  0  0  0  0  0
  -21.7928   12.8443   20.8660 O   0  0  0  0  0  0
  -23.4634   15.7589   18.2238 C   0  0  0  0  0  0
  -23.3935   15.4339   16.9388 F   0  0  0  0  0  0
  -22.6986   16.8286   18.4072 F   0  0  0  0  0  0
  -23.8477   10.9997   18.3461 C   0  0  0  0  0  0
  -24.8079   11.1868   17.3273 C   0  0  0  0  0  0
  -25.2382   10.1129   16.5301 C   0  0  0  0  0  0
  -24.7909    8.8216   16.8344 C   0  0  0  0  0  0
  -23.8560    8.6190   17.8542 C   0  0  0  0  0  0
  -23.3504    9.7054   18.5983 C   0  0  0  0  0  0
  -26.0969   10.3534   15.4488 N   0  0  0  0  0  0
  -26.0119    9.8562   14.1345 C   0  0  0  0  0  0
  -24.8792    9.1378   13.7122 C   0  0  0  0  0  0
  -24.8054    8.6839   12.3942 C   0  0  0  0  0  0
  -25.7640    8.9077   11.4867 N   0  0  0  0  0  0
  -26.8509    9.6017   11.8653 C   0  0  0  0  0  0
  -27.0247   10.1029   13.1764 C   0  0  0  0  0  0
  -28.2296   10.8473   13.5040 C   0  0  0  0  0  0
  -29.1904   11.4351   13.7523 N   0  0  0  0  0  0
  -28.0465    9.8453   10.6421 Cl  0  0  0  0  0  0
  -21.0876    8.0583   20.6028 H   0  0  0  0  0  0
  -21.4070    7.7359   18.9129 H   0  0  0  0  0  0
  -22.6743    7.5254   20.1360 H   0  0  0  0  0  0
  -24.3628   13.4745   18.0603 H   0  0  0  0  0  0
  -21.9454   14.3885   18.7921 H   0  0  0  0  0  0
  -22.1676   15.6939   20.7533 H   0  0  0  0  0  0
  -23.8946   15.4405   20.8700 H   0  0  0  0  0  0
  -22.3568   14.0443   22.4318 H   0  0  0  0  0  0
  -23.6778   13.2260   21.6517 H   0  0  0  0  0  0
  -24.4950   16.0373   18.4417 H   0  0  0  0  0  0
  -25.1818   12.1736   17.1042 H   0  0  0  0  0  0
  -25.1445    7.9771   16.2610 H   0  0  0  0  0  0
  -23.5259    7.6047   18.0217 H   0  0  0  0  0  0
  -26.7611   11.0953   15.5907 H   0  0  0  0  0  0
  -24.0458    8.9439   14.3675 H   0  0  0  0  0  0
  -23.9370    8.1379   12.0524 H   0  0  0  0  0  0
  1  2  1  0  0  0
  1 31  1  0  0  0
  1 32  1  0  0  0
  1 33  1  0  0  0
  2 20  1  0  0  0
  2  3  1  0  0  0
  3  4  2  0  0  0
  3  5  1  0  0  0
  5 11  1  0  0  0
  5  6  2  0  0  0
  6  7  1  0  0  0
  6 15  1  0  0  0
  7  8  1  0  0  0
  7 34  1  0  0  0
  8  9  1  0  0  0
  8 12  1  0  0  0
  8 35  1  0  0  0
  9 10  1  0  0  0
  9 36  1  0  0  0
  9 37  1  0  0  0
 10 11  1  0  0  0
 10 38  1  0  0  0
 10 39  1  0  0  0
 12 13  1  0  0  0
 12 14  1  0  0  0
 12 40  1  0  0  0
 15 20  2  0  0  0
 15 16  1  0  0  0
 16 17  2  0  0  0
 16 41  1  0  0  0
 17 18  1  0  0  0
 17 21  1  0  0  0
 18 19  2  0  0  0
 18 42  1  0  0  0
 19 20  1  0  0  0
 19 43  1  0  0  0
 21 22  1  0  0  0
 21 44  1  0  0  0
 22 27  1  0  0  0
 22 23  2  0  0  0
 23 24  1  0  0  0
 23 45  1  0  0  0
 24 25  2  0  0  0
 24 46  1  0  0  0
 25 26  1  0  0  0
 26 27  2  0  0  0
 26 30  1  0  0  0
 27 28  1  0  0  0
 28 29  3  0  0  0
M  END
> <s_m_entry_id>
381

> <s_m_entry_name>
BCL6_lig_11e.1

> <s_m_Source_Path>
C:\Users\yujiethinkpad\Desktop\selection\BCL6\original

> <s_m_Source_File>
BCL6_lig_11e.sdf

> <i_m_Source_File_Index>
1

> <i_lp_mmshare_version>
51139

> <i_f3d_flags>
0

> <s_epik_input>
TzFbQ0gyXVtDSDJdW0NASF0oW0NIXShGKUYpW05IXWMoYzEyKWMzYyhuKFtDSDNdKWMyPU8pW2NIXVtjSF1jKFtjSF0zKVtOSF1jNFtjSF1bY0hdbmMoQ2wpYzRDI04=

> <s_epik_cmdline>
J2VwaWtfcHl0aG9uJywgJy1waHQnLCAnMi4wJywgJy1waCcsICc3LjAnLCAnLXRuJywgJzgnLCAnLW1hJywgJzIwMCcsICctaW1hZScsICc8aW5maWxlLm1hZT4nLCAnLW9tYWUnLCAnPG91dGZpbGUubWFlPic=

> <r_epik_Ionization_Penalty>
  0.0019

> <r_epik_Ionization_Penalty_Charging>
  0.0000

> <r_epik_Ionization_Penalty_Neutral>
  0.0019

> <r_epik_State_Penalty>
  0.0012

> <r_epik_Charging_Adjusted_Penalty>
0.00121324

> <i_epik_Tot_Q>
0

> <i_epik_Tot_abs_Q>
0

> <s_lp_Force_Field>
OPLS3e

> <r_lp_Energy>
62.1614

> <b_lp_Chiralities_Consistent>
1

> <s_lp_Variant>
/home/yujie/leadopt/data/result/selection/BCL6/lig_11e.sdf:1-1

> <s_i_glide_gridfile>
glide-grid_BCL6

> <i_i_glide_lignum>
13

> <i_i_glide_rotatable_bonds>
3

> <r_i_docking_score>
-6.29414468119513

> <r_i_glide_ligand_efficiency>
-0.209804822706504

> <r_i_glide_ligand_efficiency_sa>
-0.651912364280442

> <r_i_glide_ligand_efficiency_ln>
-1.43009825176668

> <r_i_glide_gscore>
-6.29534468119513

> <r_i_glide_lipo>
-2.39542598500597

> <r_i_glide_hbond>
-0.456060887891822

> <r_i_glide_metal>
0

> <r_i_glide_rewards>
-0.925947541929584

> <r_i_glide_evdw>
-34.1680145263672

> <r_i_glide_ecoul>
-6.57726335525513

> <r_i_glide_erotb>
0.213365144837422

> <r_i_glide_esite>
-0.0362851815985472

> <r_i_glide_emodel>
-49.9702404632755

> <r_i_glide_energy>
-40.7452778816223

> <r_i_glide_einternal>
1.01582860946655

> <i_i_glide_confnum>
1

> <i_i_glide_posenum>
126

> <r_i_glide_eff_state_penalty>
0.0012

> <s_m_job_name>
glide-dock_SP_BCL6_ligand1

> <r_glide_shape_similarity>
0.944695055484772

> <s_m_subgroup_title>
glide-dock_SP_BCL6_ligand1_lib1

> <s_m_subgroupid>
glide-dock_SP_BCL6_ligand1_lib1

> <b_m_subgroup_collapsed>
0

$$$$
