/home/yujie/leadopt/data/result/selection/BCL6/lig_14.sdf:1
                    3D
 Schrodinger Suite 2021-2.
 50 54  0  0  1  0            999 V2000
  -21.8248    8.1537   19.8460 C   0  0  0  0  0  0
  -22.3134    9.5169   19.5858 N   0  0  0  0  0  0
  -21.7501   10.5492   20.2700 C   0  0  0  0  0  0
  -20.7122   10.4170   20.9164 O   0  0  0  0  0  0
  -22.4152   11.8478   20.1405 C   0  0  0  0  0  0
  -23.2608   12.1336   19.1256 C   0  0  0  0  0  0
  -23.7092   13.4263   18.8645 N   0  0  0  0  0  0
  -23.2085   14.7109   19.3812 C   0  0  2  0  0  0
  -23.5452   15.8249   18.3766 C   0  0  0  0  0  0
  -22.5097   16.7424   17.7291 C   0  0  0  0  0  0
  -23.2249   15.7311   16.8954 C   0  0  0  0  0  0
  -21.7351   14.7329   19.8537 C   0  0  0  0  0  0
  -20.9144   14.4995   18.8255 F   0  0  0  0  0  0
  -21.4973   15.9472   20.3648 F   0  0  0  0  0  0
  -21.3594   13.7668   20.9825 C   0  0  0  0  0  0
  -22.2772   12.7331   21.1686 O   0  0  0  0  0  0
  -23.7913   11.0251   18.2960 C   0  0  0  0  0  0
  -24.7712   11.2077   17.2873 C   0  0  0  0  0  0
  -25.2440   10.1213   16.5285 C   0  0  0  0  0  0
  -24.8033    8.8226   16.8385 C   0  0  0  0  0  0
  -23.8532    8.6200   17.8526 C   0  0  0  0  0  0
  -23.3289    9.7122   18.5859 C   0  0  0  0  0  0
  -26.1225   10.3535   15.4619 N   0  0  0  0  0  0
  -26.0195    9.8512   14.1482 C   0  0  0  0  0  0
  -24.8790    9.1311   13.7281 C   0  0  0  0  0  0
  -24.7857    8.6957   12.3968 C   0  0  0  0  0  0
  -25.7441    8.9049   11.4887 N   0  0  0  0  0  0
  -26.8355    9.5948   11.8554 C   0  0  0  0  0  0
  -27.0322   10.0661   13.1743 C   0  0  0  0  0  0
  -28.3208   10.6514   13.4663 C   0  0  0  0  0  0
  -29.3648   11.0899   13.6572 N   0  0  0  0  0  0
  -28.0357    9.8257   10.6233 Cl  0  0  0  0  0  0
  -23.7776   14.9211   20.2827 H   0  0  0  0  0  0
  -21.0592    8.0741   20.6213 H   0  0  0  0  0  0
  -22.6514    7.5248   20.1802 H   0  0  0  0  0  0
  -21.4033    7.7219   18.9378 H   0  0  0  0  0  0
  -24.3471   13.5338   18.0818 H   0  0  0  0  0  0
  -24.4970   16.2969   18.6192 H   0  0  0  0  0  0
  -22.7775   17.7894   17.6169 H   0  0  0  0  0  0
  -21.4483   16.5742   17.8709 H   0  0  0  0  0  0
  -22.6949   14.8547   16.5384 H   0  0  0  0  0  0
  -23.9732   16.1034   16.2043 H   0  0  0  0  0  0
  -20.3541   13.3620   20.8431 H   0  0  0  0  0  0
  -21.3333   14.3006   21.9349 H   0  0  0  0  0  0
  -25.1243   12.1990   17.0413 H   0  0  0  0  0  0
  -25.1788    7.9713   16.2894 H   0  0  0  0  0  0
  -23.5348    7.6063   18.0381 H   0  0  0  0  0  0
  -26.8489   11.0406   15.6371 H   0  0  0  0  0  0
  -24.0577    8.9240   14.3947 H   0  0  0  0  0  0
  -23.9435    8.1039   12.0690 H   0  0  0  0  0  0
  1  2  1  0  0  0
  1 34  1  0  0  0
  1 35  1  0  0  0
  1 36  1  0  0  0
  2 22  1  0  0  0
  2  3  1  0  0  0
  3  4  2  0  0  0
  3  5  1  0  0  0
  5 16  1  0  0  0
  5  6  2  0  0  0
  6  7  1  0  0  0
  6 17  1  0  0  0
  7  8  1  0  0  0
  7 37  1  0  0  0
  8 33  1  0  0  0
  8  9  1  0  0  0
  8 12  1  0  0  0
  9 11  1  0  0  0
  9 10  1  0  0  0
  9 38  1  0  0  0
 10 11  1  0  0  0
 10 39  1  0  0  0
 10 40  1  0  0  0
 11 41  1  0  0  0
 11 42  1  0  0  0
 12 13  1  0  0  0
 12 14  1  0  0  0
 12 15  1  0  0  0
 15 16  1  0  0  0
 15 43  1  0  0  0
 15 44  1  0  0  0
 17 22  2  0  0  0
 17 18  1  0  0  0
 18 19  2  0  0  0
 18 45  1  0  0  0
 19 20  1  0  0  0
 19 23  1  0  0  0
 20 21  2  0  0  0
 20 46  1  0  0  0
 21 22  1  0  0  0
 21 47  1  0  0  0
 23 24  1  0  0  0
 23 48  1  0  0  0
 24 29  1  0  0  0
 24 25  2  0  0  0
 25 26  1  0  0  0
 25 49  1  0  0  0
 26 27  2  0  0  0
 26 50  1  0  0  0
 27 28  1  0  0  0
 28 29  2  0  0  0
 28 32  1  0  0  0
 29 30  1  0  0  0
 30 31  3  0  0  0
M  END
> <s_m_entry_id>
391

> <s_m_entry_name>
BCL6_lig_14.1

> <s_m_Source_Path>
C:\Users\yujiethinkpad\Desktop\selection\BCL6\original

> <s_m_Source_File>
BCL6_lig_14.sdf

> <i_m_Source_File_Index>
1

> <i_lp_mmshare_version>
51139

> <i_f3d_flags>
0

> <s_epik_input>
W0NIMl0xW0NIMl1bQ0hdMVtDQEhdKEMoRikoRilbQ0gyXU8yKVtOSF1jKGMyMyljNGMobihbQ0gzXSljMz1PKVtjSF1bY0hdYyhbY0hdNClbTkhdYzVbY0hdW2NIXW5jKENsKWM1QyNO

> <s_epik_cmdline>
J2VwaWtfcHl0aG9uJywgJy1waHQnLCAnMi4wJywgJy1waCcsICc3LjAnLCAnLXRuJywgJzgnLCAnLW1hJywgJzIwMCcsICctaW1hZScsICc8aW5maWxlLm1hZT4nLCAnLW9tYWUnLCAnPG91dGZpbGUubWFlPic=

> <r_epik_Ionization_Penalty>
  0.0016

> <r_epik_Ionization_Penalty_Charging>
  0.0000

> <r_epik_Ionization_Penalty_Neutral>
  0.0016

> <r_epik_State_Penalty>
  0.0010

> <r_epik_Charging_Adjusted_Penalty>
0.00100151

> <i_epik_Tot_Q>
0

> <i_epik_Tot_abs_Q>
0

> <s_lp_Force_Field>
OPLS3e

> <r_lp_Energy>
63.8596

> <b_lp_Chiralities_Consistent>
1

> <s_lp_Variant>
/home/yujie/leadopt/data/result/selection/BCL6/lig_14.sdf:1-1

> <s_i_glide_gridfile>
glide-grid_BCL6

> <i_i_glide_lignum>
20

> <i_i_glide_rotatable_bonds>
3

> <r_i_docking_score>
-5.76849832471744

> <r_i_glide_ligand_efficiency>
-0.18026557264742

> <r_i_glide_ligand_efficiency_sa>
-0.572307518647173

> <r_i_glide_ligand_efficiency_ln>
-1.29172401822978

> <r_i_glide_gscore>
-5.76949832471744

> <r_i_glide_lipo>
-2.10150124063158

> <r_i_glide_hbond>
-0.488971232940157

> <r_i_glide_metal>
0

> <r_i_glide_rewards>
-0.790462599982994

> <r_i_glide_evdw>
-33.7881126403809

> <r_i_glide_ecoul>
-6.57944536209106

> <r_i_glide_erotb>
0.287759185170002

> <r_i_glide_esite>
0

> <r_i_glide_emodel>
-44.4050352396246

> <r_i_glide_energy>
-40.3675580024719

> <r_i_glide_einternal>
7.18978261947632

> <i_i_glide_confnum>
7

> <i_i_glide_posenum>
245

> <r_i_glide_eff_state_penalty>
0.001

> <s_m_job_name>
glide-dock_SP_BCL6_ligand1

> <r_glide_shape_similarity>
0.94307953119278

> <s_m_subgroup_title>
glide-dock_SP_BCL6_ligand1_lib1

> <s_m_subgroupid>
glide-dock_SP_BCL6_ligand1_lib1

> <b_m_subgroup_collapsed>
0

$$$$
