@<TRIPOS>MOLECULE
46
45   48    1
SMALL
USER_CHARGES


@<TRIPOS>ATOM
      1 O1          3.5634  -47.8222    6.3169 O.co2     1 UNK         0.0000 
      2 C2          3.0096  -48.8325    6.8076 C.2       1 UNK         0.0000 
      3 O3          3.6259  -49.6047    7.5794 O.co2     1 UNK         0.0000 
      4 C4          1.5978  -49.1187    6.4846 C.ar      1 UNK         0.0000 
      5 C5         -0.2687  -50.4180    6.6086 C.ar      1 UNK         0.0000 
      6 C6         -1.2477  -51.4049    6.8705 C.ar      1 UNK         0.0000 
      7 C7         -2.5242  -51.2927    6.2695 C.ar      1 UNK         0.0000 
      8 C8         -2.8029  -50.2046    5.4177 C.ar      1 UNK         0.0000 
      9 C9         -1.8160  -49.2240    5.1702 C.ar      1 UNK         0.0000 
     10 C10        -0.5328  -49.3025    5.7596 C.ar      1 UNK         0.0000 
     11 C11         0.6485  -48.4818    5.7196 C.ar      1 UNK         0.0000 
     12 C12         0.7914  -47.1830    4.9813 C.3       1 UNK         0.0000 
     13 C13         0.8856  -45.9530    5.9079 C.3       1 UNK         0.0000 
     14 C14        -0.3043  -45.7921    6.8650 C.3       1 UNK         0.0000 
     15 O15        -1.4475  -45.4189    6.1063 O.3       1 UNK         0.0000 
     16 C16        -2.6442  -45.2630    6.7712 C.ar      1 UNK         0.0000 
     17 C17        -4.8922  -44.2571    6.6999 C.ar      1 UNK         0.0000 
     18 C18        -3.6327  -44.4906    6.1102 C.ar      1 UNK         0.0000 
     19 H19        -1.0201  -52.2377    7.5251 H         1 UNK         0.0000 
     20 H20        -3.2785  -52.0456    6.4598 H         1 UNK         0.0000 
     21 H21        -3.7773  -50.1193    4.9545 H         1 UNK         0.0000 
     22 H22        -2.0556  -48.3850    4.5239 H         1 UNK         0.0000 
     23 H23        -0.0599  -47.0510    4.3183 H         1 UNK         0.0000 
     24 H24         1.6673  -47.2161    4.3353 H         1 UNK         0.0000 
     25 H25         0.9959  -45.0491    5.3038 H         1 UNK         0.0000 
     26 H26         1.7930  -46.0181    6.5046 H         1 UNK         0.0000 
     27 H27        -0.0852  -45.0058    7.5899 H         1 UNK         0.0000 
     28 H28        -0.4512  -46.7216    7.4182 H         1 UNK         0.0000 
     29 H29        -3.4149  -44.0650    5.1406 H         1 UNK         0.0000 
     30 C30        -2.9379  -45.8450    8.0360 C.ar      1 UNK         0.0000 
     31 H31        -5.6352  -43.6555    6.1979 H         1 UNK         0.0000 
     32 H32        -2.2387  -46.4637    8.5728 H         1 UNK         0.0000 
     33 N33         1.0287  -50.2522    7.0341 N.pl3     1 UNK         0.0000 
     34 C34        -6.2177  -45.7257    9.9160 C.3       1 UNK         0.0000 
     35 C35        -4.7395  -46.1893    9.8810 C.3       1 UNK         0.0000 
     36 C36        -4.2087  -45.6259    8.5912 C.ar      1 UNK         0.0000 
     37 C37        -5.1536  -44.8350    7.9542 C.ar      1 UNK         0.0000 
     38 C38        -6.4175  -44.7160    8.7624 C.3       1 UNK         0.0000 
     39 H39        -6.5036  -43.6968    9.1386 H         1 UNK         0.0000 
     40 H40        -7.2948  -44.9463    8.1570 H         1 UNK         0.0000 
     41 H41        -6.5029  -45.3113   10.8847 H         1 UNK         0.0000 
     42 H42        -6.8566  -46.5933    9.7373 H         1 UNK         0.0000 
     43 H43        -4.6544  -47.2763    9.8998 H         1 UNK         0.0000 
     44 H44        -4.1716  -45.7891   10.7160 H         1 UNK         0.0000 
     45 H45         1.5629  -50.8425    7.6515 H         1 UNK         0.0000 
@<TRIPOS>BOND
     1    1    2 2    
     2    2    3 1    
     3    2    4 1    
     4    4   11 ar   
     5    4   33 ar   
     6    5    6 ar   
     7    5   10 ar   
     8    5   33 ar   
     9    6    7 ar   
    10    6   19 1    
    11    7    8 ar   
    12    7   20 1    
    13    8    9 ar   
    14    8   21 1    
    15    9   10 ar   
    16    9   22 1    
    17   10   11 ar   
    18   11   12 1    
    19   12   23 1    
    20   12   24 1    
    21   12   13 1    
    22   13   14 1    
    23   13   25 1    
    24   13   26 1    
    25   14   15 1    
    26   14   27 1    
    27   14   28 1    
    28   15   16 1    
    29   16   18 ar   
    30   16   30 ar   
    31   17   18 ar   
    32   17   31 1    
    33   17   37 ar   
    34   18   29 1    
    35   30   32 1    
    36   30   36 ar   
    37   33   45 1    
    38   34   35 1    
    39   34   38 1    
    40   34   41 1    
    41   34   42 1    
    42   35   36 1    
    43   35   43 1    
    44   35   44 1    
    45   36   37 ar   
    46   37   38 1    
    47   38   39 1    
    48   38   40 1    
@<TRIPOS>SUBSTRUCTURE
     1 UNK         1 GROUP             0       ****    0 ROOT    
