@<TRIPOS>MOLECULE
65
43   45    1
SMALL
USER_CHARGES


@<TRIPOS>ATOM
      1 O1          3.9461  -49.6120    7.0490 O.co2     1 UNK         0.0000 
      2 C2          3.1658  -48.7770    6.5329 C.2       1 UNK         0.0000 
      3 O3          3.5657  -47.6377    6.1960 O.co2     1 UNK         0.0000 
      4 C4          1.7275  -49.1194    6.3295 C.2       1 UNK         0.0000 
      5 S5          1.2733  -50.7336    6.7953 S.3       1 UNK         0.0000 
      6 C6         -0.4025  -50.4753    6.3317 C.ar      1 UNK         0.0000 
      7 C7         -1.4791  -51.3860    6.4178 C.ar      1 UNK         0.0000 
      8 C8         -2.7670  -51.0046    6.0094 C.ar      1 UNK         0.0000 
      9 C9         -2.9812  -49.7061    5.5114 C.ar      1 UNK         0.0000 
     10 C10        -1.8984  -48.8064    5.4280 C.ar      1 UNK         0.0000 
     11 C11        -0.5804  -49.1464    5.8290 C.ar      1 UNK         0.0000 
     12 C12         0.6605  -48.3675    5.8411 C.2       1 UNK         0.0000 
     13 C13         0.7551  -46.9299    5.3888 C.3       1 UNK         0.0000 
     14 C14         0.8986  -45.9247    6.5503 C.3       1 UNK         0.0000 
     15 C15        -0.2812  -45.9301    7.5188 C.3       1 UNK         0.0000 
     16 O16        -1.3961  -45.3197    6.8689 O.3       1 UNK         0.0000 
     17 C17        -2.6319  -45.4537    7.4519 C.ar      1 UNK         0.0000 
     18 C18        -2.8737  -46.1426    8.6635 C.ar      1 UNK         0.0000 
     19 C19        -4.1934  -46.3025    9.1484 C.ar      1 UNK         0.0000 
     20 C20        -4.4214  -47.0948   10.4168 C.3       1 UNK         0.0000 
     21 C21        -5.2826  -45.7389    8.4364 C.ar      1 UNK         0.0000 
     22 Cl22       -6.9050  -45.9428    9.0118 Cl        1 UNK         0.0000 
     23 C23        -5.0340  -45.0050    7.2491 C.ar      1 UNK         0.0000 
     24 C24        -6.1758  -44.3662    6.4856 C.3       1 UNK         0.0000 
     25 C25        -3.7162  -44.8717    6.7646 C.ar      1 UNK         0.0000 
     26 Cl26       -1.2372  -52.9829    7.0303 Cl        1 UNK         0.0000 
     27 H27        -3.5909  -51.6994    6.0856 H         1 UNK         0.0000 
     28 H28        -3.9674  -49.3971    5.1973 H         1 UNK         0.0000 
     29 H29        -2.0864  -47.8164    5.0511 H         1 UNK         0.0000 
     30 H30        -0.1302  -46.6598    4.8168 H         1 UNK         0.0000 
     31 H31         1.5882  -46.8012    4.6903 H         1 UNK         0.0000 
     32 H32         1.0376  -44.9168    6.1530 H         1 UNK         0.0000 
     33 H33         1.7899  -46.1465    7.1282 H         1 UNK         0.0000 
     34 H34        -0.0338  -45.3645    8.4141 H         1 UNK         0.0000 
     35 H35        -0.4930  -46.9559    7.8179 H         1 UNK         0.0000 
     36 H36        -2.0618  -46.5754    9.2316 H         1 UNK         0.0000 
     37 H37        -5.1478  -46.6091   11.0729 H         1 UNK         0.0000 
     38 H38        -4.7955  -48.0883   10.1684 H         1 UNK         0.0000 
     39 H39        -3.4946  -47.2165   10.9839 H         1 UNK         0.0000 
     40 H40        -5.8060  -43.7551    5.6573 H         1 UNK         0.0000 
     41 H41        -6.8417  -45.1281    6.0706 H         1 UNK         0.0000 
     42 H42        -6.7594  -43.7154    7.1422 H         1 UNK         0.0000 
     43 H43        -3.5302  -44.3248    5.8485 H         1 UNK         0.0000 
@<TRIPOS>BOND
     1    1    2 2    
     2    2    3 1    
     3    2    4 1    
     4    4    5 1    
     5    4   12 2    
     6    5    6 1    
     7    6    7 ar   
     8    6   11 ar   
     9    7    8 ar   
    10    7   26 1    
    11    8    9 ar   
    12    8   27 1    
    13    9   10 ar   
    14    9   28 1    
    15   10   11 ar   
    16   10   29 1    
    17   11   12 1    
    18   12   13 1    
    19   13   30 1    
    20   13   31 1    
    21   13   14 1    
    22   14   15 1    
    23   14   32 1    
    24   14   33 1    
    25   15   16 1    
    26   15   34 1    
    27   15   35 1    
    28   16   17 1    
    29   17   18 ar   
    30   17   25 ar   
    31   18   19 ar   
    32   18   36 1    
    33   19   20 1    
    34   19   21 ar   
    35   20   37 1    
    36   20   38 1    
    37   20   39 1    
    38   21   22 1    
    39   21   23 ar   
    40   23   24 1    
    41   23   25 ar   
    42   24   40 1    
    43   24   41 1    
    44   24   42 1    
    45   25   43 1    
@<TRIPOS>SUBSTRUCTURE
     1 UNK         1 GROUP             0       ****    0 ROOT    
