@<TRIPOS>MOLECULE
37
44   46    1
SMALL
USER_CHARGES


@<TRIPOS>ATOM
      1 O1          3.8718  -50.2361    7.2245 O.co2     1 UNK         0.0000 
      2 C2          3.1316  -49.2780    6.8995 C.2       1 UNK         0.0000 
      3 O3          3.5610  -48.1075    6.8535 O.co2     1 UNK         0.0000 
      4 C4          1.7186  -49.5691    6.5705 C.ar      1 UNK         0.0000 
      5 C5         -0.0592  -50.9948    6.4011 C.ar      1 UNK         0.0000 
      6 C6         -0.9536  -52.0849    6.4146 C.ar      1 UNK         0.0000 
      7 C7         -2.3089  -51.8726    6.0773 C.ar      1 UNK         0.0000 
      8 C8         -2.7528  -50.5878    5.7200 C.ar      1 UNK         0.0000 
      9 C9         -1.8514  -49.5039    5.7068 C.ar      1 UNK         0.0000 
     10 C10        -0.4753  -49.6825    6.0507 C.ar      1 UNK         0.0000 
     11 C11         0.6554  -48.7964    6.1719 C.ar      1 UNK         0.0000 
     12 C12         0.6195  -47.3137    5.9496 C.3       1 UNK         0.0000 
     13 C13         0.2592  -46.5733    7.2461 C.3       1 UNK         0.0000 
     14 C14        -0.2682  -45.1542    7.0159 C.3       1 UNK         0.0000 
     15 O15        -1.4266  -45.1828    6.1895 O.3       1 UNK         0.0000 
     16 C16        -2.6770  -45.3015    6.7518 C.ar      1 UNK         0.0000 
     17 C17        -2.9170  -45.6759    8.0958 C.ar      1 UNK         0.0000 
     18 C18        -4.2343  -45.8324    8.5752 C.ar      1 UNK         0.0000 
     19 C19        -4.4648  -46.3044    9.9964 C.3       1 UNK         0.0000 
     20 C20        -5.3341  -45.5816    7.7206 C.ar      1 UNK         0.0000 
     21 Cl21       -6.9496  -45.7880    8.3010 Cl        1 UNK         0.0000 
     22 C22        -5.0974  -45.1838    6.3837 C.ar      1 UNK         0.0000 
     23 C23        -6.2586  -44.9543    5.4353 C.3       1 UNK         0.0000 
     24 C24        -3.7754  -45.0569    5.9068 C.ar      1 UNK         0.0000 
     25 H25        -0.6099  -53.0639    6.6886 H         1 UNK         0.0000 
     26 H26        -3.0079  -52.6920    6.0927 H         1 UNK         0.0000 
     27 H27        -3.7876  -50.4245    5.4565 H         1 UNK         0.0000 
     28 H28        -2.2150  -48.5192    5.4339 H         1 UNK         0.0000 
     29 H29        -0.1070  -47.0886    5.1675 H         1 UNK         0.0000 
     30 H30         1.5805  -46.9587    5.5729 H         1 UNK         0.0000 
     31 H31         1.1251  -46.5601    7.9062 H         1 UNK         0.0000 
     32 H32        -0.5106  -47.1361    7.7765 H         1 UNK         0.0000 
     33 H33         0.4899  -44.5605    6.4974 H         1 UNK         0.0000 
     34 H34        -0.4532  -44.6511    7.9623 H         1 UNK         0.0000 
     35 H35        -2.1047  -45.8852    8.7746 H         1 UNK         0.0000 
     36 H36        -5.0633  -45.5829   10.5539 H         1 UNK         0.0000 
     37 H37        -4.9883  -47.2627    9.9924 H         1 UNK         0.0000 
     38 H38        -3.5238  -46.4500   10.5302 H         1 UNK         0.0000 
     39 H39        -5.9144  -44.6062    4.4587 H         1 UNK         0.0000 
     40 H40        -6.8176  -45.8821    5.2865 H         1 UNK         0.0000 
     41 H41        -6.9402  -44.2052    5.8399 H         1 UNK         0.0000 
     42 H42        -3.6027  -44.7867    4.8774 H         1 UNK         0.0000 
     43 N43         1.2925  -50.8807    6.6907 N.pl3     1 UNK         0.0000 
     44 H44         1.9238  -51.5961    7.0008 H         1 UNK         0.0000 
@<TRIPOS>BOND
     1    1    2 2    
     2    2    3 1    
     3    2    4 1    
     4    4   11 ar   
     5    4   43 ar   
     6    5    6 ar   
     7    5   10 ar   
     8    5   43 ar   
     9    6    7 ar   
    10    6   25 1    
    11    7    8 ar   
    12    7   26 1    
    13    8    9 ar   
    14    8   27 1    
    15    9   10 ar   
    16    9   28 1    
    17   10   11 ar   
    18   11   12 1    
    19   12   29 1    
    20   12   30 1    
    21   12   13 1    
    22   13   14 1    
    23   13   31 1    
    24   13   32 1    
    25   14   15 1    
    26   14   33 1    
    27   14   34 1    
    28   15   16 1    
    29   16   17 ar   
    30   16   24 ar   
    31   17   18 ar   
    32   17   35 1    
    33   18   19 1    
    34   18   20 ar   
    35   19   36 1    
    36   19   37 1    
    37   19   38 1    
    38   20   21 1    
    39   20   22 ar   
    40   22   23 1    
    41   22   24 ar   
    42   23   39 1    
    43   23   40 1    
    44   23   41 1    
    45   24   42 1    
    46   43   44 1    
@<TRIPOS>SUBSTRUCTURE
     1 UNK         1 GROUP             0       ****    0 ROOT    
