@<TRIPOS>MOLECULE
62
43   46    1
SMALL
USER_CHARGES


@<TRIPOS>ATOM
      1 O1          3.5438  -47.5772    5.7905 O.co2     1 UNK         0.0000 
      2 C2          3.1835  -48.5307    6.5190 C.2       1 UNK         0.0000 
      3 O3          3.9583  -48.9716    7.3983 O.co2     1 UNK         0.0000 
      4 C4          1.8205  -49.1108    6.3417 C.2       1 UNK         0.0000 
      5 S5          1.6677  -50.7691    6.8730 S.3       1 UNK         0.0000 
      6 C6         -0.0534  -50.7822    6.5135 C.ar      1 UNK         0.0000 
      7 C7         -0.9252  -51.8582    6.7331 C.ar      1 UNK         0.0000 
      8 C8         -2.2931  -51.7406    6.4181 C.ar      1 UNK         0.0000 
      9 C9         -2.7610  -50.5248    5.8913 C.ar      1 UNK         0.0000 
     10 C10        -1.8910  -49.4330    5.6876 C.ar      1 UNK         0.0000 
     11 C11        -0.4943  -49.5299    5.9753 C.ar      1 UNK         0.0000 
     12 C12         0.6271  -48.5701    5.8889 C.2       1 UNK         0.0000 
     13 C13         0.4730  -47.1115    5.5285 C.3       1 UNK         0.0000 
     14 C14         0.1924  -46.3223    6.8187 C.3       1 UNK         0.0000 
     15 C15        -0.5189  -44.9864    6.6239 C.3       1 UNK         0.0000 
     16 O16        -1.8770  -45.1797    6.2416 O.3       1 UNK         0.0000 
     17 C17        -2.8344  -45.2637    7.2315 C.ar      1 UNK         0.0000 
     18 C18        -4.9255  -45.4944    9.1209 C.ar      1 UNK         0.0000 
     19 C19        -3.6260  -45.9830    9.4207 C.ar      1 UNK         0.0000 
     20 C20        -2.5867  -45.7933    8.5093 C.ar      1 UNK         0.0000 
     21 H21        -0.5445  -52.7829    7.1443 H         1 UNK         0.0000 
     22 H22        -2.9629  -52.5707    6.5722 H         1 UNK         0.0000 
     23 H23        -3.8074  -50.4318    5.6453 H         1 UNK         0.0000 
     24 Cl24       -2.6124  -47.9686    5.0985 Cl        1 UNK         0.0000 
     25 H25        -0.3095  -46.9567    4.7865 H         1 UNK         0.0000 
     26 H26         1.3663  -46.7329    5.0246 H         1 UNK         0.0000 
     27 H27         1.1354  -46.1804    7.3386 H         1 UNK         0.0000 
     28 H28        -0.4110  -46.9370    7.4640 H         1 UNK         0.0000 
     29 H29        -0.0242  -44.4093    5.8295 H         1 UNK         0.0000 
     30 H30        -0.4473  -44.3726    7.5269 H         1 UNK         0.0000 
     31 H31        -1.6007  -46.1009    8.7965 H         1 UNK         0.0000 
     32 C32        -5.1778  -44.8765    7.8875 C.ar      1 UNK         0.0000 
     33 C33        -4.1442  -44.7749    6.9318 C.ar      1 UNK         0.0000 
     34 C34        -4.4214  -44.1639    5.6900 C.ar      1 UNK         0.0000 
     35 C35        -5.7020  -43.6469    5.4010 C.ar      1 UNK         0.0000 
     36 C36        -6.7289  -43.7443    6.3621 C.ar      1 UNK         0.0000 
     37 C37        -6.4652  -44.3618    7.6033 C.ar      1 UNK         0.0000 
     38 H38        -3.6486  -44.0600    4.9342 H         1 UNK         0.0000 
     39 H39        -5.8890  -43.1675    4.4469 H         1 UNK         0.0000 
     40 H40        -7.7027  -43.3379    6.1482 H         1 UNK         0.0000 
     41 H41        -7.2573  -44.4288    8.3269 H         1 UNK         0.0000 
     42 H42        -3.4577  -46.4365   10.3980 H         1 UNK         0.0000 
     43 H43        -5.7255  -45.5994    9.8513 H         1 UNK         0.0000 
@<TRIPOS>BOND
     1    1    2 2    
     2    2    3 1    
     3    2    4 1    
     4    4    5 1    
     5    4   12 2    
     6    5    6 1    
     7    6    7 ar   
     8    6   11 ar   
     9    7    8 ar   
    10    7   21 1    
    11    8    9 ar   
    12    8   22 1    
    13    9   10 ar   
    14    9   23 1    
    15   10   11 ar   
    16   10   24 1    
    17   11   12 1    
    18   12   13 1    
    19   13   25 1    
    20   13   26 1    
    21   13   14 1    
    22   14   15 1    
    23   14   27 1    
    24   14   28 1    
    25   15   16 1    
    26   15   29 1    
    27   15   30 1    
    28   16   17 1    
    29   17   20 ar   
    30   17   33 ar   
    31   18   19 ar   
    32   18   32 ar   
    33   18   43 1    
    34   19   20 ar   
    35   19   42 1    
    36   20   31 1    
    37   32   33 ar   
    38   32   37 ar   
    39   33   34 ar   
    40   34   35 ar   
    41   34   38 1    
    42   35   36 ar   
    43   35   39 1    
    44   36   37 ar   
    45   36   40 1    
    46   37   41 1    
@<TRIPOS>SUBSTRUCTURE
     1 UNK         1 GROUP             0       ****    0 ROOT    
