@<TRIPOS>MOLECULE
31
41   43    1
SMALL
USER_CHARGES


@<TRIPOS>ATOM
      1 O1          3.5641  -47.7534    6.2143 O.co2     1 UNK         0.0000 
      2 C2          3.0122  -48.7554    6.7454 C.2       1 UNK         0.0000 
      3 O3          3.6123  -49.5070    7.5449 O.co2     1 UNK         0.0000 
      4 C4          1.5969  -49.0608    6.3966 C.ar      1 UNK         0.0000 
      5 C5         -0.2442  -50.4134    6.4643 C.ar      1 UNK         0.0000 
      6 C6         -1.2037  -51.4312    6.6788 C.ar      1 UNK         0.0000 
      7 C7         -2.5043  -51.2795    6.1613 C.ar      1 UNK         0.0000 
      8 C8         -2.8377  -50.1268    5.4226 C.ar      1 UNK         0.0000 
      9 C9         -1.8793  -49.1151    5.2073 C.ar      1 UNK         0.0000 
     10 C10        -0.5657  -49.2279    5.7279 C.ar      1 UNK         0.0000 
     11 C11         0.6141  -48.3957    5.7009 C.ar      1 UNK         0.0000 
     12 C12         0.7301  -47.0351    5.0529 C.3       1 UNK         0.0000 
     13 C13         0.7552  -45.8921    6.0871 C.3       1 UNK         0.0000 
     14 C14        -0.5322  -45.7699    6.9086 C.3       1 UNK         0.0000 
     15 O15        -1.5383  -45.2373    6.0607 O.3       1 UNK         0.0000 
     16 C16        -2.7966  -45.0645    6.5801 C.ar      1 UNK         0.0000 
     17 C17        -3.2770  -45.7162    7.7440 C.ar      1 UNK         0.0000 
     18 C18        -4.5937  -45.5045    8.1936 C.ar      1 UNK         0.0000 
     19 C19        -5.4351  -44.6171    7.4875 C.ar      1 UNK         0.0000 
     20 C20        -4.9679  -43.9681    6.3316 C.ar      1 UNK         0.0000 
     21 C21        -3.6549  -44.1973    5.8830 C.ar      1 UNK         0.0000 
     22 H22        -0.9293  -52.3080    7.2373 H         1 UNK         0.0000 
     23 H23        -3.2343  -52.0545    6.3287 H         1 UNK         0.0000 
     24 H24        -3.8309  -50.0299    5.0245 H         1 UNK         0.0000 
     25 H25        -2.1597  -48.2368    4.6387 H         1 UNK         0.0000 
     26 H26        -0.0757  -46.8844    4.3251 H         1 UNK         0.0000 
     27 H27         1.6496  -47.0026    4.4706 H         1 UNK         0.0000 
     28 H28         0.9511  -44.9495    5.5770 H         1 UNK         0.0000 
     29 H29         1.5892  -46.0434    6.7679 H         1 UNK         0.0000 
     30 H30        -0.3754  -45.0980    7.7560 H         1 UNK         0.0000 
     31 H31        -0.8071  -46.7438    7.3136 H         1 UNK         0.0000 
     32 H32        -2.6512  -46.4014    8.2886 H         1 UNK         0.0000 
     33 H33        -3.3054  -43.7005    4.9910 H         1 UNK         0.0000 
     34 N34         1.0786  -50.2786    6.8435 N.pl3     1 UNK         0.0000 
     35 H35         1.6576  -50.9409    7.3678 H         1 UNK         0.0000 
     36 H36        -5.6168  -43.2999    5.7853 H         1 UNK         0.0000 
     37 H37        -6.4444  -44.4497    7.8279 H         1 UNK         0.0000 
     38 F38        -5.7749  -45.4084   10.2138 F         1 UNK         0.0000 
     39 C39        -5.1355  -46.2506    9.4023 C.3       1 UNK         0.0000 
     40 F40        -5.9929  -47.1821    8.9848 F         1 UNK         0.0000 
     41 F41        -4.1591  -46.8446   10.0908 F         1 UNK         0.0000 
@<TRIPOS>BOND
     1    1    2 2    
     2    2    3 1    
     3    2    4 1    
     4    4   11 ar   
     5    4   34 ar   
     6    5    6 ar   
     7    5   10 ar   
     8    5   34 ar   
     9    6    7 ar   
    10    6   22 1    
    11    7    8 ar   
    12    7   23 1    
    13    8    9 ar   
    14    8   24 1    
    15    9   10 ar   
    16    9   25 1    
    17   10   11 ar   
    18   11   12 1    
    19   12   26 1    
    20   12   27 1    
    21   12   13 1    
    22   13   14 1    
    23   13   28 1    
    24   13   29 1    
    25   14   15 1    
    26   14   30 1    
    27   14   31 1    
    28   15   16 1    
    29   16   17 ar   
    30   16   21 ar   
    31   17   18 ar   
    32   17   32 1    
    33   18   19 ar   
    34   18   39 1    
    35   19   20 ar   
    36   19   37 1    
    37   20   21 ar   
    38   20   36 1    
    39   21   33 1    
    40   34   35 1    
    41   38   39 1    
    42   39   40 1    
    43   39   41 1    
@<TRIPOS>SUBSTRUCTURE
     1 UNK         1 GROUP             0       ****    0 ROOT    
