@<TRIPOS>MOLECULE
50
44   46    1
SMALL
USER_CHARGES


@<TRIPOS>ATOM
      1 O1          3.7793  -49.8551    7.0486 O.co2     1 UNK         0.0000 
      2 C2          2.9869  -48.9536    6.6755 C.2       1 UNK         0.0000 
      3 O3          3.3674  -47.7712    6.5283 O.co2     1 UNK         0.0000 
      4 C4          1.5743  -49.3351    6.4116 C.ar      1 UNK         0.0000 
      5 C5         -0.1186  -50.8654    6.3660 C.ar      1 UNK         0.0000 
      6 C6         -0.9353  -52.0079    6.4726 C.ar      1 UNK         0.0000 
      7 C7         -2.2983  -51.9243    6.1497 C.ar      1 UNK         0.0000 
      8 C8         -2.8394  -50.6992    5.7155 C.ar      1 UNK         0.0000 
      9 C9         -2.0219  -49.5504    5.6229 C.ar      1 UNK         0.0000 
     10 C10        -0.6359  -49.6058    5.9539 C.ar      1 UNK         0.0000 
     11 C11         0.4437  -48.6413    6.0163 C.ar      1 UNK         0.0000 
     12 C12         0.3299  -47.1710    5.7539 C.3       1 UNK         0.0000 
     13 C13        -0.1581  -46.4326    7.0125 C.3       1 UNK         0.0000 
     14 C14        -0.6377  -45.0064    6.7266 C.3       1 UNK         0.0000 
     15 O15        -1.8216  -45.0466    5.9392 O.3       1 UNK         0.0000 
     16 C16        -3.0478  -45.1371    6.5648 C.ar      1 UNK         0.0000 
     17 C17        -3.2350  -45.4603    7.9288 C.ar      1 UNK         0.0000 
     18 C18        -4.5322  -45.6029    8.4606 C.ar      1 UNK         0.0000 
     19 C19        -4.6965  -46.0234    9.9032 C.3       1 UNK         0.0000 
     20 C20        -5.6613  -45.3986    7.6394 C.ar      1 UNK         0.0000 
     21 Cl21       -7.2509  -45.6153    8.2746 Cl        1 UNK         0.0000 
     22 C22        -5.4842  -45.0381    6.2876 C.ar      1 UNK         0.0000 
     23 C23        -6.6772  -44.8280    5.3721 C.3       1 UNK         0.0000 
     24 C24        -4.1811  -44.9222    5.7571 C.ar      1 UNK         0.0000 
     25 H25        -0.5074  -52.9447    6.8061 H         1 UNK         0.0000 
     26 H26        -2.9294  -52.8025    6.2356 H         1 UNK         0.0000 
     27 H27        -3.8920  -50.6527    5.4647 H         1 UNK         0.0000 
     28 Cl28       -2.7591  -48.0672    5.1129 Cl        1 UNK         0.0000 
     29 H29        -0.3547  -46.9813    4.9224 H         1 UNK         0.0000 
     30 H30         1.2818  -46.7549    5.4393 H         1 UNK         0.0000 
     31 H31         0.6482  -46.4140    7.7546 H         1 UNK         0.0000 
     32 H32        -0.9697  -47.0031    7.4646 H         1 UNK         0.0000 
     33 H33         0.1311  -44.4722    6.1648 H         1 UNK         0.0000 
     34 H34        -0.7740  -44.4350    7.6482 H         1 UNK         0.0000 
     35 H35        -2.3878  -45.6249    8.5742 H         1 UNK         0.0000 
     36 H36        -5.3628  -45.3425   10.4435 H         1 UNK         0.0000 
     37 H37        -5.1215  -47.0319    9.9632 H         1 UNK         0.0000 
     38 H38        -3.7378  -46.0406   10.4320 H         1 UNK         0.0000 
     39 H39        -6.3693  -44.5230    4.3710 H         1 UNK         0.0000 
     40 H40        -7.2388  -45.7616    5.2796 H         1 UNK         0.0000 
     41 H41        -7.3363  -44.0653    5.7749 H         1 UNK         0.0000 
     42 H42        -4.0437  -44.6634    4.7162 H         1 UNK         0.0000 
     43 N43         1.2283  -50.6666    6.6110 N.pl3     1 UNK         0.0000 
     44 H44         1.9287  -51.3488    6.9074 H         1 UNK         0.0000 
@<TRIPOS>BOND
     1    1    2 2    
     2    2    3 1    
     3    2    4 1    
     4    4   11 ar   
     5    4   43 ar   
     6    5    6 ar   
     7    5   10 ar   
     8    5   43 ar   
     9    6    7 ar   
    10    6   25 1    
    11    7    8 ar   
    12    7   26 1    
    13    8    9 ar   
    14    8   27 1    
    15    9   10 ar   
    16    9   28 1    
    17   10   11 ar   
    18   11   12 1    
    19   12   29 1    
    20   12   30 1    
    21   12   13 1    
    22   13   14 1    
    23   13   31 1    
    24   13   32 1    
    25   14   15 1    
    26   14   33 1    
    27   14   34 1    
    28   15   16 1    
    29   16   17 ar   
    30   16   24 ar   
    31   17   18 ar   
    32   17   35 1    
    33   18   19 1    
    34   18   20 ar   
    35   19   36 1    
    36   19   37 1    
    37   19   38 1    
    38   20   21 1    
    39   20   22 ar   
    40   22   23 1    
    41   22   24 ar   
    42   23   39 1    
    43   23   40 1    
    44   23   41 1    
    45   24   42 1    
    46   43   44 1    
@<TRIPOS>SUBSTRUCTURE
     1 UNK         1 GROUP             0       ****    0 ROOT    
