@<TRIPOS>MOLECULE
51
44   47    1
SMALL
USER_CHARGES


@<TRIPOS>ATOM
      1 O1          3.7527  -49.6152    6.8636 O.co2     1 UNK         0.0000 
      2 C2          2.8848  -48.7317    6.6600 C.2       1 UNK         0.0000 
      3 O3          3.1745  -47.5142    6.7244 O.co2     1 UNK         0.0000 
      4 C4          1.4963  -49.1647    6.3449 C.ar      1 UNK         0.0000 
      5 C5         -0.1706  -50.7326    6.1724 C.ar      1 UNK         0.0000 
      6 C6         -0.9638  -51.8980    6.1848 C.ar      1 UNK         0.0000 
      7 C7         -2.3385  -51.8063    5.8920 C.ar      1 UNK         0.0000 
      8 C8         -2.8945  -50.5470    5.5892 C.ar      1 UNK         0.0000 
      9 C9         -2.1048  -49.3755    5.5930 C.ar      1 UNK         0.0000 
     10 C10        -0.7152  -49.4395    5.8829 C.ar      1 UNK         0.0000 
     11 C11         0.3471  -48.4704    6.0111 C.ar      1 UNK         0.0000 
     12 C12         0.2138  -46.9863    5.9181 C.3       1 UNK         0.0000 
     13 C13        -0.0845  -46.4209    7.3062 C.3       1 UNK         0.0000 
     14 C14        -0.6144  -44.9916    7.3052 C.3       1 UNK         0.0000 
     15 O15        -1.9032  -44.9246    6.7062 O.3       1 UNK         0.0000 
     16 C16        -3.0236  -45.1515    7.4787 C.ar      1 UNK         0.0000 
     17 C17        -5.3750  -45.5596    9.0081 C.ar      1 UNK         0.0000 
     18 C18        -4.1326  -45.9972    9.4926 C.ar      1 UNK         0.0000 
     19 C19        -2.9744  -45.8157    8.7239 C.ar      1 UNK         0.0000 
     20 H20        -0.5176  -52.8580    6.4257 H         1 UNK         0.0000 
     21 H21        -2.9480  -52.6929    5.8996 H         1 UNK         0.0000 
     22 H22        -3.9451  -50.4849    5.3600 H         1 UNK         0.0000 
     23 Cl23       -2.8919  -47.8611    5.2687 Cl        1 UNK         0.0000 
     24 H24        -0.5735  -46.7018    5.2184 H         1 UNK         0.0000 
     25 H25         1.1226  -46.5310    5.5107 H         1 UNK         0.0000 
     26 H26         0.8231  -46.4830    7.8976 H         1 UNK         0.0000 
     27 H27        -0.8063  -47.0664    7.8111 H         1 UNK         0.0000 
     28 H28         0.0691  -44.3813    6.7142 H         1 UNK         0.0000 
     29 H29        -0.6277  -44.5694    8.3150 H         1 UNK         0.0000 
     30 H30        -2.0412  -46.1723    9.1262 H         1 UNK         0.0000 
     31 C31        -5.4558  -44.9041    7.7675 C.ar      1 UNK         0.0000 
     32 C32        -4.2759  -44.6954    7.0025 C.ar      1 UNK         0.0000 
     33 C33        -4.3683  -44.0049    5.7701 C.ar      1 UNK         0.0000 
     34 C34        -5.6111  -43.5273    5.3116 C.ar      1 UNK         0.0000 
     35 C35        -6.7775  -43.7552    6.0709 C.ar      1 UNK         0.0000 
     36 C36        -6.7018  -44.4463    7.2927 C.ar      1 UNK         0.0000 
     37 H37        -3.4833  -43.8281    5.1811 H         1 UNK         0.0000 
     38 H38        -5.6684  -42.9880    4.3736 H         1 UNK         0.0000 
     39 H39        -7.7319  -43.3883    5.7175 H         1 UNK         0.0000 
     40 H40        -7.5959  -44.6138    7.8717 H         1 UNK         0.0000 
     41 H41        -4.0734  -46.4936   10.4507 H         1 UNK         0.0000 
     42 H42        -6.2681  -45.7131    9.5988 H         1 UNK         0.0000 
     43 N43         1.1745  -50.5105    6.4276 N.pl3     1 UNK         0.0000 
     44 H44         1.8793  -51.1829    6.6898 H         1 UNK         0.0000 
@<TRIPOS>BOND
     1    1    2 2    
     2    2    3 1    
     3    2    4 1    
     4    4   11 ar   
     5    4   43 ar   
     6    5    6 ar   
     7    5   10 ar   
     8    5   43 ar   
     9    6    7 ar   
    10    6   20 1    
    11    7    8 ar   
    12    7   21 1    
    13    8    9 ar   
    14    8   22 1    
    15    9   10 ar   
    16    9   23 1    
    17   10   11 ar   
    18   11   12 1    
    19   12   24 1    
    20   12   25 1    
    21   12   13 1    
    22   13   14 1    
    23   13   26 1    
    24   13   27 1    
    25   14   15 1    
    26   14   28 1    
    27   14   29 1    
    28   15   16 1    
    29   16   19 ar   
    30   16   32 ar   
    31   17   18 ar   
    32   17   31 ar   
    33   17   42 1    
    34   18   19 ar   
    35   18   41 1    
    36   19   30 1    
    37   31   32 ar   
    38   31   36 ar   
    39   32   33 ar   
    40   33   34 ar   
    41   33   37 1    
    42   34   35 ar   
    43   34   38 1    
    44   35   36 ar   
    45   35   39 1    
    46   36   40 1    
    47   43   44 1    
@<TRIPOS>SUBSTRUCTURE
     1 UNK         1 GROUP             0       ****    0 ROOT    
