@<TRIPOS>MOLECULE
53
44   46    1
SMALL
USER_CHARGES


@<TRIPOS>ATOM
      1 O1          3.5633  -47.7725    6.2912 O.co2     1 UNK         0.0000 
      2 C2          2.9990  -48.7572    6.8105 C.2       1 UNK         0.0000 
      3 O3          3.5991  -49.5249    7.5965 O.co2     1 UNK         0.0000 
      4 C4          1.5779  -49.0223    6.4966 C.ar      1 UNK         0.0000 
      5 C5         -0.3475  -50.2345    6.7439 C.ar      1 UNK         0.0000 
      6 C6         -1.3726  -51.1291    7.1185 C.ar      1 UNK         0.0000 
      7 C7         -2.6775  -50.9471    6.6123 C.ar      1 UNK         0.0000 
      8 C8         -2.9184  -49.8992    5.6921 C.ar      1 UNK         0.0000 
      9 C9         -1.8916  -49.0147    5.3222 C.ar      1 UNK         0.0000 
     10 C10        -0.5857  -49.1422    5.8567 C.ar      1 UNK         0.0000 
     11 C11         0.6255  -48.3732    5.7579 C.ar      1 UNK         0.0000 
     12 C12         0.7780  -47.0671    5.0307 C.3       1 UNK         0.0000 
     13 C13         0.7971  -45.8570    5.9948 C.3       1 UNK         0.0000 
     14 C14        -0.4751  -45.7293    6.8378 C.3       1 UNK         0.0000 
     15 O15        -1.5902  -45.4593    5.9971 O.3       1 UNK         0.0000 
     16 C16        -2.8366  -45.4835    6.5820 C.ar      1 UNK         0.0000 
     17 C17        -3.0790  -45.8230    7.9355 C.ar      1 UNK         0.0000 
     18 C18        -4.3932  -45.8530    8.4569 C.ar      1 UNK         0.0000 
     19 C19        -4.6030  -46.2695    9.9009 C.3       1 UNK         0.0000 
     20 C20        -5.4830  -45.5150    7.6284 C.ar      1 UNK         0.0000 
     21 Cl21       -7.0947  -45.5514    8.2641 Cl        1 UNK         0.0000 
     22 C22        -5.2572  -45.1565    6.2816 C.ar      1 UNK         0.0000 
     23 C23        -6.4197  -44.7794    5.3753 C.3       1 UNK         0.0000 
     24 C24        -3.9414  -45.1545    5.7667 C.ar      1 UNK         0.0000 
     25 H25        -1.1746  -51.9204    7.8217 H         1 UNK         0.0000 
     26 Cl26       -3.9554  -51.9815    7.1109 Cl        1 UNK         0.0000 
     27 H27        -3.9172  -49.7603    5.2947 H         1 UNK         0.0000 
     28 H28        -2.0998  -48.2000    4.6420 H         1 UNK         0.0000 
     29 H29        -0.0541  -46.9554    4.3227 H         1 UNK         0.0000 
     30 H30         1.6867  -47.0741    4.4237 H         1 UNK         0.0000 
     31 H31         0.9692  -44.9414    5.4362 H         1 UNK         0.0000 
     32 H32         1.6544  -45.9582    6.6661 H         1 UNK         0.0000 
     33 H33        -0.3569  -44.9148    7.5568 H         1 UNK         0.0000 
     34 H34        -0.6037  -46.6484    7.4050 H         1 UNK         0.0000 
     35 H35        -2.2739  -46.0799    8.6015 H         1 UNK         0.0000 
     36 H36        -5.1155  -45.4823   10.4590 H         1 UNK         0.0000 
     37 H37        -5.2126  -47.1749    9.9474 H         1 UNK         0.0000 
     38 H38        -3.6578  -46.4782   10.4009 H         1 UNK         0.0000 
     39 H39        -6.0752  -44.5140    4.3756 H         1 UNK         0.0000 
     40 H40        -7.1156  -45.6150    5.2839 H         1 UNK         0.0000 
     41 H41        -6.9557  -43.9220    5.7856 H         1 UNK         0.0000 
     42 H42        -3.7745  -44.8949    4.7279 H         1 UNK         0.0000 
     43 N43         0.9882  -50.1295    7.0836 N.pl3     1 UNK         0.0000 
     44 H44         1.5182  -50.7414    7.6866 H         1 UNK         0.0000 
@<TRIPOS>BOND
     1    1    2 2    
     2    2    3 1    
     3    2    4 1    
     4    4   11 ar   
     5    4   43 ar   
     6    5    6 ar   
     7    5   10 ar   
     8    5   43 ar   
     9    6    7 ar   
    10    6   25 1    
    11    7    8 ar   
    12    7   26 1    
    13    8    9 ar   
    14    8   27 1    
    15    9   10 ar   
    16    9   28 1    
    17   10   11 ar   
    18   11   12 1    
    19   12   29 1    
    20   12   30 1    
    21   12   13 1    
    22   13   14 1    
    23   13   31 1    
    24   13   32 1    
    25   14   15 1    
    26   14   33 1    
    27   14   34 1    
    28   15   16 1    
    29   16   17 ar   
    30   16   24 ar   
    31   17   18 ar   
    32   17   35 1    
    33   18   19 1    
    34   18   20 ar   
    35   19   36 1    
    36   19   37 1    
    37   19   38 1    
    38   20   21 1    
    39   20   22 ar   
    40   22   23 1    
    41   22   24 ar   
    42   23   39 1    
    43   23   40 1    
    44   23   41 1    
    45   24   42 1    
    46   43   44 1    
@<TRIPOS>SUBSTRUCTURE
     1 UNK         1 GROUP             0       ****    0 ROOT    
