@<TRIPOS>MOLECULE
66
43   46    1
SMALL
USER_CHARGES


@<TRIPOS>ATOM
      1 O1          3.5632  -47.8394    5.6651 O.co2     1 UNK         0.0000 
      2 C2          3.0547  -48.6446    6.4687 C.2       1 UNK         0.0000 
      3 O3          3.7176  -49.0437    7.4483 O.co2     1 UNK         0.0000 
      4 C4          1.6404  -49.0782    6.2866 C.2       1 UNK         0.0000 
      5 S5          1.2183  -50.6024    7.0271 S.3       1 UNK         0.0000 
      6 C6         -0.4520  -50.4734    6.4812 C.ar      1 UNK         0.0000 
      7 C7         -1.5140  -51.3853    6.6849 C.ar      1 UNK         0.0000 
      8 C8         -2.8051  -51.0838    6.2163 C.ar      1 UNK         0.0000 
      9 C9         -3.0350  -49.8729    5.5476 C.ar      1 UNK         0.0000 
     10 C10        -1.9701  -48.9821    5.3251 C.ar      1 UNK         0.0000 
     11 C11        -0.6468  -49.2498    5.7659 C.ar      1 UNK         0.0000 
     12 C12         0.5741  -48.4756    5.6336 C.2       1 UNK         0.0000 
     13 C13         0.6517  -47.1469    4.9149 C.3       1 UNK         0.0000 
     14 C14         0.7584  -45.9333    5.8538 C.3       1 UNK         0.0000 
     15 C15        -0.2819  -45.9205    6.9846 C.3       1 UNK         0.0000 
     16 O16        -1.5969  -45.7351    6.4764 O.3       1 UNK         0.0000 
     17 C17        -2.6622  -45.8427    7.3608 C.ar      1 UNK         0.0000 
     18 C18        -4.8922  -46.0665    9.1171 C.ar      1 UNK         0.0000 
     19 C19        -3.6002  -46.3844    9.5752 C.ar      1 UNK         0.0000 
     20 C20        -2.4954  -46.2648    8.7080 C.ar      1 UNK         0.0000 
     21 Cl21       -1.2466  -52.8788    7.5124 Cl        1 UNK         0.0000 
     22 H22        -3.6235  -51.7836    6.3815 H         1 UNK         0.0000 
     23 H23        -4.0332  -49.6215    5.1991 H         1 UNK         0.0000 
     24 H24        -2.1703  -48.0560    4.8113 H         1 UNK         0.0000 
     25 H25        -0.2390  -47.0225    4.3158 H         1 UNK         0.0000 
     26 H26         1.4901  -47.1452    4.2148 H         1 UNK         0.0000 
     27 H27         0.7050  -45.0106    5.2760 H         1 UNK         0.0000 
     28 H28         1.7451  -45.9429    6.3140 H         1 UNK         0.0000 
     29 H29        -0.0489  -45.1139    7.6769 H         1 UNK         0.0000 
     30 H30        -0.1866  -46.8551    7.5316 H         1 UNK         0.0000 
     31 H31        -1.5239  -46.5195    9.1169 H         1 UNK         0.0000 
     32 C32        -5.0761  -45.6435    7.7862 C.ar      1 UNK         0.0000 
     33 C33        -3.9716  -45.5347    6.9092 C.ar      1 UNK         0.0000 
     34 C34        -4.1999  -45.1108    5.5812 C.ar      1 UNK         0.0000 
     35 C35        -5.4996  -44.7947    5.1453 C.ar      1 UNK         0.0000 
     36 C36        -6.5848  -44.9082    6.0206 C.ar      1 UNK         0.0000 
     37 C37        -6.3755  -45.3310    7.3422 C.ar      1 UNK         0.0000 
     38 H38        -3.3775  -45.0164    4.8790 H         1 UNK         0.0000 
     39 H39        -5.6642  -44.4657    4.1260 H         1 UNK         0.0000 
     40 H40        -7.5884  -44.6716    5.6855 H         1 UNK         0.0000 
     41 H41        -7.2209  -45.4118    8.0212 H         1 UNK         0.0000 
     42 H42        -3.4519  -46.7173   10.5975 H         1 UNK         0.0000 
     43 H43        -5.7306  -46.1549    9.7980 H         1 UNK         0.0000 
@<TRIPOS>BOND
     1    1    2 2    
     2    2    3 1    
     3    2    4 1    
     4    4    5 1    
     5    4   12 2    
     6    5    6 1    
     7    6    7 ar   
     8    6   11 ar   
     9    7    8 ar   
    10    7   21 1    
    11    8    9 ar   
    12    8   22 1    
    13    9   10 ar   
    14    9   23 1    
    15   10   11 ar   
    16   10   24 1    
    17   11   12 1    
    18   12   13 1    
    19   13   25 1    
    20   13   26 1    
    21   13   14 1    
    22   14   15 1    
    23   14   27 1    
    24   14   28 1    
    25   15   16 1    
    26   15   29 1    
    27   15   30 1    
    28   16   17 1    
    29   17   20 ar   
    30   17   33 ar   
    31   18   19 ar   
    32   18   32 ar   
    33   18   43 1    
    34   19   20 ar   
    35   19   42 1    
    36   20   31 1    
    37   32   33 ar   
    38   32   37 ar   
    39   33   34 ar   
    40   34   35 ar   
    41   34   38 1    
    42   35   36 ar   
    43   35   39 1    
    44   36   37 ar   
    45   36   40 1    
    46   37   41 1    
@<TRIPOS>SUBSTRUCTURE
     1 UNK         1 GROUP             0       ****    0 ROOT    
