@<TRIPOS>MOLECULE
35
41   43    1
SMALL
USER_CHARGES


@<TRIPOS>ATOM
      1 O1          3.5648  -47.8113    6.2796 O.co2     1 UNK         0.0000 
      2 C2          3.0310  -48.8242    6.8004 C.2       1 UNK         0.0000 
      3 O3          3.6630  -49.5724    7.5811 O.co2     1 UNK         0.0000 
      4 C4          1.6183  -49.1519    6.4787 C.ar      1 UNK         0.0000 
      5 C5         -0.2217  -50.4968    6.5938 C.ar      1 UNK         0.0000 
      6 C6         -1.1816  -51.5029    6.8463 C.ar      1 UNK         0.0000 
      7 C7         -2.4635  -51.3995    6.2697 C.ar      1 UNK         0.0000 
      8 C8         -2.7770  -50.2885    5.4590 C.ar      1 UNK         0.0000 
      9 C9         -1.8231  -49.2850    5.2249 C.ar      1 UNK         0.0000 
     10 C10        -0.5246  -49.3637    5.7854 C.ar      1 UNK         0.0000 
     11 C11         0.6491  -48.5159    5.7434 C.ar      1 UNK         0.0000 
     12 C12         0.7691  -47.1896    5.0377 C.3       1 UNK         0.0000 
     13 C13         0.8370  -45.9992    6.0190 C.3       1 UNK         0.0000 
     14 C14        -0.4250  -45.8461    6.8783 C.3       1 UNK         0.0000 
     15 O15        -1.5112  -45.4316    6.0568 O.3       1 UNK         0.0000 
     16 C16        -2.7184  -45.2208    6.6770 C.ar      1 UNK         0.0000 
     17 C17        -3.0811  -45.7923    7.9227 C.ar      1 UNK         0.0000 
     18 C18        -4.3343  -45.5354    8.5139 C.ar      1 UNK         0.0000 
     19 C19        -5.2346  -44.6602    7.8591 C.ar      1 UNK         0.0000 
     20 C20        -4.8952  -44.1086    6.6071 C.ar      1 UNK         0.0000 
     21 C21        -3.6498  -44.3988    6.0191 C.ar      1 UNK         0.0000 
     22 H22        -0.9320  -52.3460    7.4726 H         1 UNK         0.0000 
     23 H23        -3.2041  -52.1633    6.4560 H         1 UNK         0.0000 
     24 H24        -3.7614  -50.2034    5.0261 H         1 UNK         0.0000 
     25 H25        -2.0759  -48.4336    4.6099 H         1 UNK         0.0000 
     26 H26        -0.0638  -47.0515    4.3496 H         1 UNK         0.0000 
     27 H27         1.6702  -47.1961    4.4252 H         1 UNK         0.0000 
     28 H28         1.0075  -45.0787    5.4596 H         1 UNK         0.0000 
     29 H29         1.6919  -46.1052    6.6889 H         1 UNK         0.0000 
     30 H30        -0.2486  -45.0926    7.6503 H         1 UNK         0.0000 
     31 H31        -0.6237  -46.7925    7.3796 H         1 UNK         0.0000 
     32 H32        -2.4111  -46.4591    8.4420 H         1 UNK         0.0000 
     33 H33        -3.4103  -43.9697    5.0602 H         1 UNK         0.0000 
     34 N34         1.0877  -50.3279    6.9944 N.pl3     1 UNK         0.0000 
     35 H35         1.6574  -50.9325    7.5789 H         1 UNK         0.0000 
     36 H36        -5.5902  -43.4580    6.0977 H         1 UNK         0.0000 
     37 Cl37       -6.7603  -44.2478    8.5596 Cl        1 UNK         0.0000 
     38 C38        -4.6696  -46.2368    9.8281 C.3       1 UNK         0.0000 
     39 H39        -5.6654  -45.9873   10.2010 H         1 UNK         0.0000 
     40 H40        -4.6293  -47.3190    9.6861 H         1 UNK         0.0000 
     41 H41        -3.9434  -45.9806   10.6004 H         1 UNK         0.0000 
@<TRIPOS>BOND
     1    1    2 2    
     2    2    3 1    
     3    2    4 1    
     4    4   11 ar   
     5    4   34 ar   
     6    5    6 ar   
     7    5   10 ar   
     8    5   34 ar   
     9    6    7 ar   
    10    6   22 1    
    11    7    8 ar   
    12    7   23 1    
    13    8    9 ar   
    14    8   24 1    
    15    9   10 ar   
    16    9   25 1    
    17   10   11 ar   
    18   11   12 1    
    19   12   26 1    
    20   12   27 1    
    21   12   13 1    
    22   13   14 1    
    23   13   28 1    
    24   13   29 1    
    25   14   15 1    
    26   14   30 1    
    27   14   31 1    
    28   15   16 1    
    29   16   17 ar   
    30   16   21 ar   
    31   17   18 ar   
    32   17   32 1    
    33   18   19 ar   
    34   18   38 1    
    35   19   20 ar   
    36   19   37 1    
    37   20   21 ar   
    38   20   36 1    
    39   21   33 1    
    40   34   35 1    
    41   38   39 1    
    42   38   40 1    
    43   38   41 1    
@<TRIPOS>SUBSTRUCTURE
     1 UNK         1 GROUP             0       ****    0 ROOT    
