@<TRIPOS>MOLECULE
57
47   50    1
SMALL
USER_CHARGES


@<TRIPOS>ATOM
      1 O1          3.5644  -47.6678    5.9794 O.co2     1 UNK         0.0000 
      2 C2          3.1061  -48.6748    6.5602 C.2       1 UNK         0.0000 
      3 O3          3.8451  -49.2908    7.3808 O.co2     1 UNK         0.0000 
      4 C4          1.6967  -49.0920    6.3186 C.ar      1 UNK         0.0000 
      5 C5         -0.1535  -50.4335    6.3918 C.ar      1 UNK         0.0000 
      6 C6         -1.1205  -51.4551    6.5735 C.ar      1 UNK         0.0000 
      7 C7         -2.4473  -51.2528    6.1514 C.ar      1 UNK         0.0000 
      8 C8         -2.8077  -50.0288    5.5584 C.ar      1 UNK         0.0000 
      9 C9         -1.8532  -49.0185    5.3763 C.ar      1 UNK         0.0000 
     10 C10        -0.4989  -49.1915    5.7783 C.ar      1 UNK         0.0000 
     11 C11         0.6696  -48.3728    5.7223 C.ar      1 UNK         0.0000 
     12 C12         0.7299  -46.9821    5.1515 C.3       1 UNK         0.0000 
     13 C13         0.8228  -45.8723    6.2201 C.3       1 UNK         0.0000 
     14 C14        -0.3002  -45.9030    7.2643 C.3       1 UNK         0.0000 
     15 O15        -1.5339  -45.4785    6.6854 O.3       1 UNK         0.0000 
     16 C16        -2.6539  -45.4735    7.4912 C.ar      1 UNK         0.0000 
     17 C17        -5.0024  -45.4171    9.0952 C.ar      1 UNK         0.0000 
     18 C18        -3.8541  -46.0855    9.5449 C.ar      1 UNK         0.0000 
     19 C19        -2.6939  -46.1087    8.7532 C.ar      1 UNK         0.0000 
     20 H20        -0.8445  -52.3872    7.0350 H         1 UNK         0.0000 
     21 H21        -3.1800  -52.0331    6.2924 H         1 UNK         0.0000 
     22 H22        -3.8316  -49.8714    5.2455 H         1 UNK         0.0000 
     23 H23        -2.1448  -48.0802    4.9232 H         1 UNK         0.0000 
     24 H24        -0.1474  -46.7977    4.5314 H         1 UNK         0.0000 
     25 H25         1.5785  -46.8906    4.4715 H         1 UNK         0.0000 
     26 H26         0.8564  -44.8926    5.7363 H         1 UNK         0.0000 
     27 H27         1.7722  -45.9688    6.7479 H         1 UNK         0.0000 
     28 H28        -0.0344  -45.2375    8.0851 H         1 UNK         0.0000 
     29 H29        -0.3785  -46.9095    7.6717 H         1 UNK         0.0000 
     30 H30        -1.8362  -46.6348    9.1369 H         1 UNK         0.0000 
     31 C31        -4.9934  -44.7821    7.8391 C.ar      1 UNK         0.0000 
     32 C32        -3.8237  -44.8117    7.0307 C.ar      1 UNK         0.0000 
     33 C33        -3.8421  -44.1736    5.7733 C.ar      1 UNK         0.0000 
     34 C34        -5.0054  -43.5186    5.3209 C.ar      1 UNK         0.0000 
     35 C35        -6.1590  -43.4918    6.1266 C.ar      1 UNK         0.0000 
     36 C36        -6.1539  -44.1210    7.3843 C.ar      1 UNK         0.0000 
     37 H37        -2.9702  -44.1816    5.1360 H         1 UNK         0.0000 
     38 H38        -5.0097  -43.0370    4.3537 H         1 UNK         0.0000 
     39 H39        -7.0512  -42.9879    5.7771 H         1 UNK         0.0000 
     40 H40        -7.0438  -44.0981    7.9957 H         1 UNK         0.0000 
     41 H41        -3.8631  -46.5752   10.5084 H         1 UNK         0.0000 
     42 H42        -5.8881  -45.3965    9.7122 H         1 UNK         0.0000 
     43 C43         1.9363  -51.4455    7.3369 C.3       1 UNK         0.0000 
     44 H44         1.3189  -52.3385    7.4455 H         1 UNK         0.0000 
     45 H45         2.8013  -51.7103    6.7182 H         1 UNK         0.0000 
     46 H46         2.2782  -51.1417    8.3335 H         1 UNK         0.0000 
     47 N47         1.1956  -50.3552    6.7086 N.pl3     1 UNK         0.0000 
@<TRIPOS>BOND
     1    1    2 2    
     2    2    3 1    
     3    2    4 1    
     4    4   11 ar   
     5    4   47 ar   
     6    5    6 ar   
     7    5   10 ar   
     8    5   47 ar   
     9    6    7 ar   
    10    6   20 1    
    11    7    8 ar   
    12    7   21 1    
    13    8    9 ar   
    14    8   22 1    
    15    9   10 ar   
    16    9   23 1    
    17   10   11 ar   
    18   11   12 1    
    19   12   24 1    
    20   12   25 1    
    21   12   13 1    
    22   13   14 1    
    23   13   26 1    
    24   13   27 1    
    25   14   15 1    
    26   14   28 1    
    27   14   29 1    
    28   15   16 1    
    29   16   19 ar   
    30   16   32 ar   
    31   17   18 ar   
    32   17   31 ar   
    33   17   42 1    
    34   18   19 ar   
    35   18   41 1    
    36   19   30 1    
    37   31   32 ar   
    38   31   36 ar   
    39   32   33 ar   
    40   33   34 ar   
    41   33   37 1    
    42   34   35 ar   
    43   34   38 1    
    44   35   36 ar   
    45   35   39 1    
    46   36   40 1    
    47   43   44 1    
    48   43   45 1    
    49   43   46 1    
    50   43   47 1    
@<TRIPOS>SUBSTRUCTURE
     1 UNK         1 GROUP             0       ****    0 ROOT    
