@<TRIPOS>MOLECULE
36
44   46    1
SMALL
USER_CHARGES


@<TRIPOS>ATOM
      1 O1          3.6486  -50.1155    7.2936 O.co2     1 UNK         0.0000 
      2 C2          3.0238  -49.1116    6.8696 C.2       1 UNK         0.0000 
      3 O3          3.5639  -47.9877    6.7459 O.co2     1 UNK         0.0000 
      4 C4          1.5940  -49.2664    6.5154 C.ar      1 UNK         0.0000 
      5 C5         -0.3066  -50.5037    6.2446 C.ar      1 UNK         0.0000 
      6 C6         -1.2942  -51.5082    6.1819 C.ar      1 UNK         0.0000 
      7 C7         -2.5933  -51.1778    5.7270 C.ar      1 UNK         0.0000 
      8 C8         -2.8850  -49.8590    5.3326 C.ar      1 UNK         0.0000 
      9 C9         -1.8855  -48.8628    5.3863 C.ar      1 UNK         0.0000 
     10 C10        -0.5718  -49.1585    5.8504 C.ar      1 UNK         0.0000 
     11 C11         0.6453  -48.4011    6.0244 C.ar      1 UNK         0.0000 
     12 C12         0.8699  -46.9540    5.7115 C.3       1 UNK         0.0000 
     13 C13         0.8705  -46.0612    6.9633 C.3       1 UNK         0.0000 
     14 C14        -0.5079  -45.9153    7.6192 C.3       1 UNK         0.0000 
     15 O15        -1.3791  -45.2890    6.6807 O.3       1 UNK         0.0000 
     16 C16        -2.7075  -45.1673    7.0098 C.ar      1 UNK         0.0000 
     17 C17        -3.2736  -45.5369    8.2558 C.ar      1 UNK         0.0000 
     18 C18        -4.6559  -45.3670    8.4996 C.ar      1 UNK         0.0000 
     19 C19        -5.4813  -44.8248    7.4876 C.ar      1 UNK         0.0000 
     20 C20        -4.9225  -44.4588    6.2513 C.ar      1 UNK         0.0000 
     21 C21        -3.5495  -44.6330    6.0174 C.ar      1 UNK         0.0000 
     22 H22        -1.0647  -52.5224    6.4767 H         1 UNK         0.0000 
     23 H23        -3.3582  -51.9397    5.6845 H         1 UNK         0.0000 
     24 H24        -3.8813  -49.6149    4.9781 H         1 UNK         0.0000 
     25 H25        -2.1244  -47.8593    5.0781 H         1 UNK         0.0000 
     26 H26         0.1213  -46.6056    4.9961 H         1 UNK         0.0000 
     27 H27         1.8239  -46.8346    5.2003 H         1 UNK         0.0000 
     28 H28         1.2319  -45.0664    6.6877 H         1 UNK         0.0000 
     29 H29         1.5862  -46.4384    7.6933 H         1 UNK         0.0000 
     30 H30        -0.4291  -45.2978    8.5207 H         1 UNK         0.0000 
     31 H31        -0.8854  -46.8978    7.9215 H         1 UNK         0.0000 
     32 H32        -2.6600  -45.9640    9.0405 H         1 UNK         0.0000 
     33 H33        -3.1406  -44.3521    5.0597 H         1 UNK         0.0000 
     34 N34         1.0171  -50.5153    6.6494 N.pl3     1 UNK         0.0000 
     35 H35         1.5629  -51.3024    6.9815 H         1 UNK         0.0000 
     36 H36        -5.5584  -44.0499    5.4821 H         1 UNK         0.0000 
     37 Cl37       -7.1836  -44.6085    7.7292 Cl        1 UNK         0.0000 
     38 C38        -5.2272  -45.7987    9.8469 C.3       1 UNK         0.0000 
     39 H39        -4.4603  -45.6871   10.6188 H         1 UNK         0.0000 
     40 H40        -6.0455  -45.1381   10.1444 H         1 UNK         0.0000 
     41 C41        -5.7150  -47.2564    9.8165 C.3       1 UNK         0.0000 
     42 H42        -6.5051  -47.3917    9.0744 H         1 UNK         0.0000 
     43 H43        -4.8998  -47.9404    9.5631 H         1 UNK         0.0000 
     44 H44        -6.1126  -47.5448   10.7931 H         1 UNK         0.0000 
@<TRIPOS>BOND
     1    1    2 2    
     2    2    3 1    
     3    2    4 1    
     4    4   11 ar   
     5    4   34 ar   
     6    5    6 ar   
     7    5   10 ar   
     8    5   34 ar   
     9    6    7 ar   
    10    6   22 1    
    11    7    8 ar   
    12    7   23 1    
    13    8    9 ar   
    14    8   24 1    
    15    9   10 ar   
    16    9   25 1    
    17   10   11 ar   
    18   11   12 1    
    19   12   26 1    
    20   12   27 1    
    21   12   13 1    
    22   13   14 1    
    23   13   28 1    
    24   13   29 1    
    25   14   15 1    
    26   14   30 1    
    27   14   31 1    
    28   15   16 1    
    29   16   17 ar   
    30   16   21 ar   
    31   17   18 ar   
    32   17   32 1    
    33   18   19 ar   
    34   18   38 1    
    35   19   20 ar   
    36   19   37 1    
    37   20   21 ar   
    38   20   36 1    
    39   21   33 1    
    40   34   35 1    
    41   38   39 1    
    42   38   40 1    
    43   38   41 1    
    44   41   42 1    
    45   41   43 1    
    46   41   44 1    
@<TRIPOS>SUBSTRUCTURE
     1 UNK         1 GROUP             0       ****    0 ROOT    
