@<TRIPOS>MOLECULE
64
43   46    1
SMALL
USER_CHARGES


@<TRIPOS>ATOM
      1 O1          3.7996  -50.0339    7.1693 O.co2     1 UNK         0.0000 
      2 C2          3.0736  -49.0720    6.8150 C.2       1 UNK         0.0000 
      3 O3          3.5568  -47.9281    6.7106 O.co2     1 UNK         0.0000 
      4 C4          1.6291  -49.2883    6.5306 C.2       1 UNK         0.0000 
      5 S5          1.0906  -50.9347    6.7544 S.3       1 UNK         0.0000 
      6 C6         -0.5531  -50.5009    6.3439 C.ar      1 UNK         0.0000 
      7 C7         -1.6748  -51.3471    6.3184 C.ar      1 UNK         0.0000 
      8 C8         -2.9396  -50.8176    5.9964 C.ar      1 UNK         0.0000 
      9 C9         -3.0703  -49.4498    5.6863 C.ar      1 UNK         0.0000 
     10 C10        -1.9354  -48.6227    5.6975 C.ar      1 UNK         0.0000 
     11 C11        -0.6477  -49.1138    6.0302 C.ar      1 UNK         0.0000 
     12 C12         0.6267  -48.4212    6.1334 C.2       1 UNK         0.0000 
     13 C13         0.7576  -46.9454    5.8670 C.3       1 UNK         0.0000 
     14 C14         0.6927  -46.0787    7.1424 C.3       1 UNK         0.0000 
     15 C15        -0.4919  -46.3659    8.0891 C.3       1 UNK         0.0000 
     16 O16        -1.7426  -45.9685    7.5206 O.3       1 UNK         0.0000 
     17 C17        -2.9139  -46.2506    8.2081 C.ar      1 UNK         0.0000 
     18 C18        -5.3832  -46.7623    9.5425 C.ar      1 UNK         0.0000 
     19 C19        -4.2148  -47.4264    9.9411 C.ar      1 UNK         0.0000 
     20 C20        -2.9951  -47.1799    9.2808 C.ar      1 UNK         0.0000 
     21 H21        -1.5571  -52.3930    6.5589 H         1 UNK         0.0000 
     22 Cl22       -4.3321  -51.8139    5.9914 Cl        1 UNK         0.0000 
     23 H23        -4.0419  -49.0428    5.4468 H         1 UNK         0.0000 
     24 H24        -2.0589  -47.5784    5.4692 H         1 UNK         0.0000 
     25 H25        -0.0323  -46.6216    5.1911 H         1 UNK         0.0000 
     26 H26         1.6817  -46.7381    5.3245 H         1 UNK         0.0000 
     27 H27         0.7202  -45.0228    6.8726 H         1 UNK         0.0000 
     28 H28         1.6078  -46.2705    7.7046 H         1 UNK         0.0000 
     29 H29        -0.3459  -45.8119    9.0163 H         1 UNK         0.0000 
     30 H30        -0.4790  -47.4239    8.3357 H         1 UNK         0.0000 
     31 H31        -2.1519  -47.7522    9.6092 H         1 UNK         0.0000 
     32 C32        -5.3384  -45.8553    8.4662 C.ar      1 UNK         0.0000 
     33 C33        -4.1071  -45.6003    7.7993 C.ar      1 UNK         0.0000 
     34 C34        -4.0955  -44.6862    6.7189 C.ar      1 UNK         0.0000 
     35 C35        -5.2802  -44.0441    6.3080 C.ar      1 UNK         0.0000 
     36 C36        -6.4964  -44.3049    6.9742 C.ar      1 UNK         0.0000 
     37 C37        -6.5207  -45.2090    8.0541 C.ar      1 UNK         0.0000 
     38 H38        -3.1805  -44.4680    6.1938 H         1 UNK         0.0000 
     39 H39        -5.2589  -43.3516    5.4831 H         1 UNK         0.0000 
     40 H40        -7.4007  -43.8160    6.6574 H         1 UNK         0.0000 
     41 H41        -7.4574  -45.3993    8.5577 H         1 UNK         0.0000 
     42 H42        -4.2479  -48.1459   10.7491 H         1 UNK         0.0000 
     43 H43        -6.3129  -46.9661   10.0585 H         1 UNK         0.0000 
@<TRIPOS>BOND
     1    1    2 2    
     2    2    3 1    
     3    2    4 1    
     4    4    5 1    
     5    4   12 2    
     6    5    6 1    
     7    6    7 ar   
     8    6   11 ar   
     9    7    8 ar   
    10    7   21 1    
    11    8    9 ar   
    12    8   22 1    
    13    9   10 ar   
    14    9   23 1    
    15   10   11 ar   
    16   10   24 1    
    17   11   12 1    
    18   12   13 1    
    19   13   25 1    
    20   13   26 1    
    21   13   14 1    
    22   14   15 1    
    23   14   27 1    
    24   14   28 1    
    25   15   16 1    
    26   15   29 1    
    27   15   30 1    
    28   16   17 1    
    29   17   20 ar   
    30   17   33 ar   
    31   18   19 ar   
    32   18   32 ar   
    33   18   43 1    
    34   19   20 ar   
    35   19   42 1    
    36   20   31 1    
    37   32   33 ar   
    38   32   37 ar   
    39   33   34 ar   
    40   34   35 ar   
    41   34   38 1    
    42   35   36 ar   
    43   35   39 1    
    44   36   37 ar   
    45   36   40 1    
    46   37   41 1    
@<TRIPOS>SUBSTRUCTURE
     1 UNK         1 GROUP             0       ****    0 ROOT    
