@<TRIPOS>MOLECULE
56
47   49    1
SMALL
USER_CHARGES


@<TRIPOS>ATOM
      1 O1          3.8860  -49.6912    7.1567 O.co2     1 UNK         0.0000 
      2 C2          3.1152  -48.8646    6.6079 C.2       1 UNK         0.0000 
      3 O3          3.5628  -47.7316    6.3168 O.co2     1 UNK         0.0000 
      4 C4          1.6860  -49.2230    6.3249 C.ar      1 UNK         0.0000 
      5 C5         -0.1971  -50.5147    6.2703 C.ar      1 UNK         0.0000 
      6 C6         -1.1985  -51.5173    6.3677 C.ar      1 UNK         0.0000 
      7 C7         -2.5251  -51.2521    5.9892 C.ar      1 UNK         0.0000 
      8 C8         -2.8500  -49.9692    5.4926 C.ar      1 UNK         0.0000 
      9 C9         -1.8593  -48.9599    5.3776 C.ar      1 UNK         0.0000 
     10 C10        -0.5124  -49.2088    5.7723 C.ar      1 UNK         0.0000 
     11 C11         0.6850  -48.4219    5.8067 C.ar      1 UNK         0.0000 
     12 C12         0.7943  -46.9841    5.3695 C.3       1 UNK         0.0000 
     13 C13         0.7867  -45.9897    6.5468 C.3       1 UNK         0.0000 
     14 C14        -0.5620  -45.9184    7.2689 C.3       1 UNK         0.0000 
     15 O15        -1.5108  -45.3393    6.3843 O.3       1 UNK         0.0000 
     16 C16        -2.7734  -45.0766    6.8667 C.ar      1 UNK         0.0000 
     17 C17        -3.2521  -45.5115    8.1245 C.ar      1 UNK         0.0000 
     18 C18        -4.5558  -45.1862    8.5488 C.ar      1 UNK         0.0000 
     19 C19        -5.0405  -45.6887    9.8958 C.3       1 UNK         0.0000 
     20 C20        -5.3922  -44.4078    7.7183 C.ar      1 UNK         0.0000 
     21 Cl21       -6.9812  -43.9831    8.2402 Cl        1 UNK         0.0000 
     22 C22        -4.9232  -43.9759    6.4562 C.ar      1 UNK         0.0000 
     23 C23        -5.7953  -43.1306    5.5483 C.3       1 UNK         0.0000 
     24 C24        -3.6246  -44.3209    6.0415 C.ar      1 UNK         0.0000 
     25 H25        -0.9461  -52.4911    6.7461 H         1 UNK         0.0000 
     26 H26        -3.2977  -52.0166    6.0792 H         1 UNK         0.0000 
     27 H27        -3.8727  -49.7548    5.2030 H         1 UNK         0.0000 
     28 H28        -2.1315  -47.9796    4.9971 H         1 UNK         0.0000 
     29 H29        -0.0129  -46.7422    4.6760 H         1 UNK         0.0000 
     30 H30         1.7136  -46.8490    4.7959 H         1 UNK         0.0000 
     31 H31         1.0429  -44.9982    6.1728 H         1 UNK         0.0000 
     32 H32         1.5694  -46.2498    7.2605 H         1 UNK         0.0000 
     33 H33        -0.4587  -45.3076    8.1660 H         1 UNK         0.0000 
     34 H34        -0.8794  -46.9154    7.5776 H         1 UNK         0.0000 
     35 H35        -2.6285  -46.0979    8.7785 H         1 UNK         0.0000 
     36 H36        -5.5447  -44.8979   10.4490 H         1 UNK         0.0000 
     37 H37        -5.7400  -46.5119    9.7544 H         1 UNK         0.0000 
     38 H38        -4.2150  -46.0488   10.5105 H         1 UNK         0.0000 
     39 H39        -5.2719  -42.8544    4.6316 H         1 UNK         0.0000 
     40 H40        -6.6997  -43.6722    5.2707 H         1 UNK         0.0000 
     41 H41        -6.0850  -42.2110    6.0560 H         1 UNK         0.0000 
     42 H42        -3.2624  -43.9924    5.0819 H         1 UNK         0.0000 
     43 C43         1.8852  -51.6780    7.1113 C.3       1 UNK         0.0000 
     44 H44         1.2409  -52.5557    7.2050 H         1 UNK         0.0000 
     45 H45         2.7069  -51.9461    6.4349 H         1 UNK         0.0000 
     46 H46         2.2851  -51.4578    8.1087 H         1 UNK         0.0000 
     47 N47         1.1675  -50.5139    6.5888 N.pl3     1 UNK         0.0000 
@<TRIPOS>BOND
     1    1    2 2    
     2    2    3 1    
     3    2    4 1    
     4    4   11 ar   
     5    4   47 ar   
     6    5    6 ar   
     7    5   10 ar   
     8    5   47 ar   
     9    6    7 ar   
    10    6   25 1    
    11    7    8 ar   
    12    7   26 1    
    13    8    9 ar   
    14    8   27 1    
    15    9   10 ar   
    16    9   28 1    
    17   10   11 ar   
    18   11   12 1    
    19   12   29 1    
    20   12   30 1    
    21   12   13 1    
    22   13   14 1    
    23   13   31 1    
    24   13   32 1    
    25   14   15 1    
    26   14   33 1    
    27   14   34 1    
    28   15   16 1    
    29   16   17 ar   
    30   16   24 ar   
    31   17   18 ar   
    32   17   35 1    
    33   18   19 1    
    34   18   20 ar   
    35   19   36 1    
    36   19   37 1    
    37   19   38 1    
    38   20   21 1    
    39   20   22 ar   
    40   22   23 1    
    41   22   24 ar   
    42   23   39 1    
    43   23   40 1    
    44   23   41 1    
    45   24   42 1    
    46   43   44 1    
    47   43   45 1    
    48   43   46 1    
    49   43   47 1    
@<TRIPOS>SUBSTRUCTURE
     1 UNK         1 GROUP             0       ****    0 ROOT    
