@<TRIPOS>MOLECULE
49
41   43    1
SMALL
USER_CHARGES


@<TRIPOS>ATOM
      1 O1          3.7483  -50.0541    7.1170 O.co2     1 UNK         0.0000 
      2 C2          3.0006  -49.1057    6.7954 C.2       1 UNK         0.0000 
      3 O3          3.4290  -47.9343    6.7113 O.co2     1 UNK         0.0000 
      4 C4          1.5768  -49.4207    6.4879 C.ar      1 UNK         0.0000 
      5 C5         -0.1297  -50.9210    6.2861 C.ar      1 UNK         0.0000 
      6 C6         -0.9519  -52.0650    6.2906 C.ar      1 UNK         0.0000 
      7 C7         -2.3129  -51.9374    5.9451 C.ar      1 UNK         0.0000 
      8 C8         -2.8209  -50.6854    5.5793 C.ar      1 UNK         0.0000 
      9 C9         -1.9989  -49.5403    5.5815 C.ar      1 UNK         0.0000 
     10 C10        -0.6224  -49.6228    5.9597 C.ar      1 UNK         0.0000 
     11 C11         0.4706  -48.6823    6.1245 C.ar      1 UNK         0.0000 
     12 C12         0.3811  -47.1915    5.9728 C.3       1 UNK         0.0000 
     13 C13        -0.2096  -46.5273    7.2339 C.3       1 UNK         0.0000 
     14 C14        -0.7304  -45.1005    6.9792 C.3       1 UNK         0.0000 
     15 O15        -1.8882  -45.1382    6.1518 O.3       1 UNK         0.0000 
     16 C16        -3.1367  -45.2529    6.7348 C.ar      1 UNK         0.0000 
     17 C17        -3.3729  -45.5902    8.0931 C.ar      1 UNK         0.0000 
     18 C18        -4.6916  -45.7161    8.5834 C.ar      1 UNK         0.0000 
     19 C19        -4.9112  -46.1093   10.0362 C.3       1 UNK         0.0000 
     20 C20        -5.7883  -45.5041    7.7218 C.ar      1 UNK         0.0000 
     21 Cl21       -7.4049  -45.7013    8.2786 Cl        1 UNK         0.0000 
     22 C22        -5.5577  -45.1489    6.3816 C.ar      1 UNK         0.0000 
     23 C23        -4.2425  -45.0326    5.8932 C.ar      1 UNK         0.0000 
     24 H24        -0.5470  -53.0187    6.5853 H         1 UNK         0.0000 
     25 H25        -2.9489  -52.8070    5.9633 H         1 UNK         0.0000 
     26 H26        -3.8615  -50.6005    5.3069 H         1 UNK         0.0000 
     27 Cl27       -2.6995  -48.0386    5.1160 Cl        1 UNK         0.0000 
     28 H28        -0.2419  -46.9394    5.1146 H         1 UNK         0.0000 
     29 H29         1.3536  -46.7639    5.7460 H         1 UNK         0.0000 
     30 H30         0.5347  -46.5325    8.0286 H         1 UNK         0.0000 
     31 H31        -1.0434  -47.1256    7.5991 H         1 UNK         0.0000 
     32 H32         0.0419  -44.5299    6.4634 H         1 UNK         0.0000 
     33 H33        -0.9160  -44.5739    7.9150 H         1 UNK         0.0000 
     34 H34        -2.5431  -45.7658    8.7612 H         1 UNK         0.0000 
     35 H35        -5.5897  -45.4169   10.5401 H         1 UNK         0.0000 
     36 H36        -5.3477  -47.1100   10.0915 H         1 UNK         0.0000 
     37 H37        -3.9767  -46.1161   10.6002 H         1 UNK         0.0000 
     38 H38        -4.0872  -44.7713    4.8560 H         1 UNK         0.0000 
     39 H39        -6.3952  -44.9810    5.7191 H         1 UNK         0.0000 
     40 N40         1.2122  -50.7518    6.5733 N.pl3     1 UNK         0.0000 
     41 H41         1.8907  -51.4663    6.8340 H         1 UNK         0.0000 
@<TRIPOS>BOND
     1    1    2 2    
     2    2    3 1    
     3    2    4 1    
     4    4   11 ar   
     5    4   40 ar   
     6    5    6 ar   
     7    5   10 ar   
     8    5   40 ar   
     9    6    7 ar   
    10    6   24 1    
    11    7    8 ar   
    12    7   25 1    
    13    8    9 ar   
    14    8   26 1    
    15    9   10 ar   
    16    9   27 1    
    17   10   11 ar   
    18   11   12 1    
    19   12   28 1    
    20   12   29 1    
    21   12   13 1    
    22   13   14 1    
    23   13   30 1    
    24   13   31 1    
    25   14   15 1    
    26   14   32 1    
    27   14   33 1    
    28   15   16 1    
    29   16   17 ar   
    30   16   23 ar   
    31   17   18 ar   
    32   17   34 1    
    33   18   19 1    
    34   18   20 ar   
    35   19   35 1    
    36   19   36 1    
    37   19   37 1    
    38   20   21 1    
    39   20   22 ar   
    40   22   23 ar   
    41   22   39 1    
    42   23   38 1    
    43   40   41 1    
@<TRIPOS>SUBSTRUCTURE
     1 UNK         1 GROUP             0       ****    0 ROOT    
