@<TRIPOS>MOLECULE
47
43   46    1
SMALL
USER_CHARGES


@<TRIPOS>ATOM
      1 O1          3.8686  -50.1190    7.0932 O.co2     1 UNK         0.0000 
      2 C2          3.1190  -49.1589    6.7946 C.2       1 UNK         0.0000 
      3 O3          3.5527  -47.9843    6.7208 O.co2     1 UNK         0.0000 
      4 C4          1.6856  -49.4320    6.5286 C.ar      1 UNK         0.0000 
      5 C5         -0.0809  -50.8763    6.3515 C.ar      1 UNK         0.0000 
      6 C6         -0.9511  -51.9836    6.3183 C.ar      1 UNK         0.0000 
      7 C7         -2.3175  -51.7852    6.0387 C.ar      1 UNK         0.0000 
      8 C8         -2.8023  -50.4802    5.8114 C.ar      1 UNK         0.0000 
      9 C9         -1.9249  -49.3776    5.8612 C.ar      1 UNK         0.0000 
     10 C10        -0.5419  -49.5476    6.1269 C.ar      1 UNK         0.0000 
     11 C11         0.5818  -48.6544    6.2494 C.ar      1 UNK         0.0000 
     12 C12         0.5070  -47.1632    6.1421 C.3       1 UNK         0.0000 
     13 C13         0.1148  -46.5415    7.4889 C.3       1 UNK         0.0000 
     14 C14        -0.4072  -45.1038    7.3461 C.3       1 UNK         0.0000 
     15 O15        -1.5468  -45.0525    6.4949 O.3       1 UNK         0.0000 
     16 C16        -2.8067  -45.2692    7.0109 C.ar      1 UNK         0.0000 
     17 C17        -5.2211  -45.1826    6.5885 C.ar      1 UNK         0.0000 
     18 C18        -3.8922  -45.0084    6.1504 C.ar      1 UNK         0.0000 
     19 H19        -0.5745  -52.9772    6.4996 H         1 UNK         0.0000 
     20 H20        -2.9954  -52.6270    6.0061 H         1 UNK         0.0000 
     21 H21        -3.8516  -50.3275    5.5997 H         1 UNK         0.0000 
     22 H22        -2.3147  -48.3846    5.6922 H         1 UNK         0.0000 
     23 H23        -0.2249  -46.8991    5.3792 H         1 UNK         0.0000 
     24 H24         1.4539  -46.7474    5.7898 H         1 UNK         0.0000 
     25 H25         0.9728  -46.5654    8.1598 H         1 UNK         0.0000 
     26 H26        -0.6489  -47.1566    7.9613 H         1 UNK         0.0000 
     27 H27         0.3680  -44.4929    6.8836 H         1 UNK         0.0000 
     28 H28        -0.6002  -44.6497    8.3160 H         1 UNK         0.0000 
     29 H29        -3.7003  -44.6602    5.1441 H         1 UNK         0.0000 
     30 C30        -3.0729  -45.7272    8.3225 C.ar      1 UNK         0.0000 
     31 H31        -6.0370  -44.9748    5.9117 H         1 UNK         0.0000 
     32 C32        -4.4026  -45.9169    8.7511 C.ar      1 UNK         0.0000 
     33 C33        -5.5002  -45.6402    7.8903 C.ar      1 UNK         0.0000 
     34 N34        -6.7807  -45.8063    8.2927 N.ar      1 UNK         0.0000 
     35 C35        -7.0196  -46.2339    9.5524 C.ar      1 UNK         0.0000 
     36 C36        -5.9967  -46.5463   10.4671 C.ar      1 UNK         0.0000 
     37 C37        -4.6620  -46.3937   10.0496 C.ar      1 UNK         0.0000 
     38 H38        -8.0581  -46.3378    9.8379 H         1 UNK         0.0000 
     39 H39        -6.2280  -46.8986   11.4632 H         1 UNK         0.0000 
     40 H40        -3.8505  -46.6326   10.7173 H         1 UNK         0.0000 
     41 H41        -2.2731  -45.9438    9.0132 H         1 UNK         0.0000 
     42 N42         1.2731  -50.7546    6.5922 N.pl3     1 UNK         0.0000 
     43 H43         1.9414  -51.4821    6.8006 H         1 UNK         0.0000 
@<TRIPOS>BOND
     1    1    2 2    
     2    2    3 1    
     3    2    4 1    
     4    4   11 ar   
     5    4   42 ar   
     6    5    6 ar   
     7    5   10 ar   
     8    5   42 ar   
     9    6    7 ar   
    10    6   19 1    
    11    7    8 ar   
    12    7   20 1    
    13    8    9 ar   
    14    8   21 1    
    15    9   10 ar   
    16    9   22 1    
    17   10   11 ar   
    18   11   12 1    
    19   12   23 1    
    20   12   24 1    
    21   12   13 1    
    22   13   14 1    
    23   13   25 1    
    24   13   26 1    
    25   14   15 1    
    26   14   27 1    
    27   14   28 1    
    28   15   16 1    
    29   16   18 ar   
    30   16   30 ar   
    31   17   18 ar   
    32   17   31 1    
    33   17   33 ar   
    34   18   29 1    
    35   30   32 ar   
    36   30   41 1    
    37   32   33 ar   
    38   32   37 ar   
    39   33   34 ar   
    40   34   35 ar   
    41   35   36 ar   
    42   35   38 1    
    43   36   37 ar   
    44   36   39 1    
    45   37   40 1    
    46   42   43 1    
@<TRIPOS>SUBSTRUCTURE
     1 UNK         1 GROUP             0       ****    0 ROOT    
