@<TRIPOS>MOLECULE
61
43   45    1
SMALL
USER_CHARGES


@<TRIPOS>ATOM
      1 O1          3.8815  -49.5255    6.8965 O.co2     1 UNK         0.0000 
      2 C2          2.9282  -48.7315    6.8254 C.2       1 UNK         0.0000 
      3 O3          3.1342  -47.4910    6.9198 O.co2     1 UNK         0.0000 
      4 C4          1.5361  -49.2540    6.6236 C.2       1 UNK         0.0000 
      5 S5          1.4251  -50.9973    6.6970 S.3       1 UNK         0.0000 
      6 C6         -0.3094  -50.9694    6.4244 C.ar      1 UNK         0.0000 
      7 C7         -1.1509  -52.0864    6.3706 C.ar      1 UNK         0.0000 
      8 C8         -2.5142  -51.9293    6.1225 C.ar      1 UNK         0.0000 
      9 C9         -3.0254  -50.6311    5.9294 C.ar      1 UNK         0.0000 
     10 C10        -2.1817  -49.5063    5.9843 C.ar      1 UNK         0.0000 
     11 C11        -0.7821  -49.6253    6.2498 C.ar      1 UNK         0.0000 
     12 C12         0.3084  -48.6541    6.3900 C.2       1 UNK         0.0000 
     13 C13         0.1210  -47.1523    6.2826 C.3       1 UNK         0.0000 
     14 C14        -0.4501  -46.5529    7.5729 C.3       1 UNK         0.0000 
     15 C15        -0.8431  -45.0778    7.3833 C.3       1 UNK         0.0000 
     16 O16        -1.8680  -44.9577    6.4022 O.3       1 UNK         0.0000 
     17 C17        -3.1956  -44.8477    6.7661 C.ar      1 UNK         0.0000 
     18 C18        -3.7127  -45.1304    8.0498 C.ar      1 UNK         0.0000 
     19 C19        -5.0949  -44.9814    8.3077 C.ar      1 UNK         0.0000 
     20 C20        -5.6273  -45.2973    9.7021 C.3       1 UNK         0.0000 
     21 C21        -5.9651  -44.5579    7.2880 C.ar      1 UNK         0.0000 
     22 Cl22       -7.6628  -44.3657    7.6086 Cl        1 UNK         0.0000 
     23 C23        -5.4616  -44.2951    6.0024 C.ar      1 UNK         0.0000 
     24 C24        -6.3759  -43.8528    4.8618 C.3       1 UNK         0.0000 
     25 C25        -4.0824  -44.4393    5.7601 C.ar      1 UNK         0.0000 
     26 H26        -0.7430  -53.0870    6.5090 H         1 UNK         0.0000 
     27 H27        -3.1757  -52.7798    6.0762 H         1 UNK         0.0000 
     28 H28        -4.0808  -50.5038    5.7246 H         1 UNK         0.0000 
     29 Cl29       -2.9292  -47.9598    5.6975 Cl        1 UNK         0.0000 
     30 H30        -0.5261  -46.9314    5.4468 H         1 UNK         0.0000 
     31 H31         1.0628  -46.6617    6.0132 H         1 UNK         0.0000 
     32 H32         0.2860  -46.6477    8.3768 H         1 UNK         0.0000 
     33 H33        -1.3235  -47.1179    7.8959 H         1 UNK         0.0000 
     34 H34         0.0265  -44.5324    7.0297 H         1 UNK         0.0000 
     35 H35        -1.1174  -44.6109    8.3212 H         1 UNK         0.0000 
     36 H36        -3.0668  -45.4819    8.8414 H         1 UNK         0.0000 
     37 H37        -6.2638  -44.4906   10.0769 H         1 UNK         0.0000 
     38 H38        -6.2145  -46.2158    9.6761 H         1 UNK         0.0000 
     39 H39        -4.8148  -45.4370   10.4139 H         1 UNK         0.0000 
     40 H40        -5.8052  -43.6609    3.9503 H         1 UNK         0.0000 
     41 H41        -7.1109  -44.6277    4.6383 H         1 UNK         0.0000 
     42 H42        -6.9047  -42.9346    5.1216 H         1 UNK         0.0000 
     43 H43        -3.6927  -44.2334    4.7674 H         1 UNK         0.0000 
@<TRIPOS>BOND
     1    1    2 2    
     2    2    3 1    
     3    2    4 1    
     4    4    5 1    
     5    4   12 2    
     6    5    6 1    
     7    6    7 ar   
     8    6   11 ar   
     9    7    8 ar   
    10    7   26 1    
    11    8    9 ar   
    12    8   27 1    
    13    9   10 ar   
    14    9   28 1    
    15   10   11 ar   
    16   10   29 1    
    17   11   12 1    
    18   12   13 1    
    19   13   30 1    
    20   13   31 1    
    21   13   14 1    
    22   14   15 1    
    23   14   32 1    
    24   14   33 1    
    25   15   16 1    
    26   15   34 1    
    27   15   35 1    
    28   16   17 1    
    29   17   18 ar   
    30   17   25 ar   
    31   18   19 ar   
    32   18   36 1    
    33   19   20 1    
    34   19   21 ar   
    35   20   37 1    
    36   20   38 1    
    37   20   39 1    
    38   21   22 1    
    39   21   23 ar   
    40   23   24 1    
    41   23   25 ar   
    42   24   40 1    
    43   24   41 1    
    44   24   42 1    
    45   25   43 1    
@<TRIPOS>SUBSTRUCTURE
     1 UNK         1 GROUP             0       ****    0 ROOT    
