@<TRIPOS>MOLECULE
39
48   51    1
SMALL
USER_CHARGES


@<TRIPOS>ATOM
      1 O1          3.8280  -50.6234    7.4838 O.co2     1 UNK         0.0000 
      2 C2          3.3210  -49.6151    6.9243 C.2       1 UNK         0.0000 
      3 O3          3.9054  -48.5248    6.8176 O.co2     1 UNK         0.0000 
      4 C4          1.9393  -49.7707    6.3969 C.ar      1 UNK         0.0000 
      5 C5         -0.0209  -50.9269    6.3143 C.ar      1 UNK         0.0000 
      6 C6         -1.0754  -51.8407    6.4953 C.ar      1 UNK         0.0000 
      7 C7         -2.3593  -51.5145    6.0248 C.ar      1 UNK         0.0000 
      8 C8         -2.5689  -50.3046    5.3500 C.ar      1 UNK         0.0000 
      9 C9         -1.5021  -49.4040    5.1503 C.ar      1 UNK         0.0000 
     10 C10        -0.2163  -49.6827    5.6368 C.ar      1 UNK         0.0000 
     11 C11         1.0640  -48.9793    5.6739 C.ar      1 UNK         0.0000 
     12 C12         1.3228  -47.6243    5.1362 C.3       1 UNK         0.0000 
     13 C13         0.4437  -46.5592    5.8286 C.3       1 UNK         0.0000 
     14 C14         0.1816  -46.7275    7.3595 C.3       1 UNK         0.0000 
     15 O15        -0.4798  -45.6317    7.9896 O.3       1 UNK         0.0000 
     16 C16        -1.8076  -45.4558    7.6772 C.ar      1 UNK         0.0000 
     17 C17        -2.8302  -45.7085    8.6264 C.ar      1 UNK         0.0000 
     18 C18        -4.1835  -45.4281    8.3011 C.ar      1 UNK         0.0000 
     19 C19        -4.5494  -44.9452    7.0122 C.ar      1 UNK         0.0000 
     20 C20        -3.5003  -44.7379    6.0858 C.ar      1 UNK         0.0000 
     21 C21        -2.1611  -44.9745    6.4195 C.ar      1 UNK         0.0000 
     22 H22        -0.8704  -52.7535    7.0353 H         1 UNK         0.0000 
     23 H23        -3.1578  -52.2073    6.1966 H         1 UNK         0.0000 
     24 H24        -3.5590  -50.0501    5.0068 H         1 UNK         0.0000 
     25 H25        -1.6958  -48.4565    4.6509 H         1 UNK         0.0000 
     26 H26         1.1281  -47.6472    4.0542 H         1 UNK         0.0000 
     27 H27         2.3865  -47.3967    5.2048 H         1 UNK         0.0000 
     28 H28        -0.5469  -46.5763    5.3452 H         1 UNK         0.0000 
     29 H29         0.8593  -45.5949    5.5863 H         1 UNK         0.0000 
     30 H30         1.1167  -46.8600    7.9082 H         1 UNK         0.0000 
     31 H31        -0.4138  -47.6220    7.5773 H         1 UNK         0.0000 
     32 H32        -2.5705  -46.1051    9.6013 H         1 UNK         0.0000 
     33 H33        -1.3614  -44.7848    5.7081 H         1 UNK         0.0000 
     34 N34         1.2913  -50.9433    6.7123 N.pl3     1 UNK         0.0000 
     35 H35         1.7986  -51.6652    7.2257 H         1 UNK         0.0000 
     36 H36        -3.7247  -44.3925    5.0868 H         1 UNK         0.0000 
     37 H37        -4.9356  -45.6033    9.0596 H         1 UNK         0.0000 
     38 C38        -8.6255  -44.3363    5.6579 C.ar      1 UNK         0.0000 
     39 C39        -7.5720  -43.6313    5.0628 C.ar      1 UNK         0.0000 
     40 C40        -6.2570  -43.7913    5.5445 C.ar      1 UNK         0.0000 
     41 C41        -5.9622  -44.6926    6.6073 C.ar      1 UNK         0.0000 
     42 C42        -7.0522  -45.3703    7.2070 C.ar      1 UNK         0.0000 
     43 C43        -8.3685  -45.1909    6.7365 C.ar      1 UNK         0.0000 
     44 H44        -9.6276  -44.2281    5.2749 H         1 UNK         0.0000 
     45 H45        -7.7574  -42.9771    4.2289 H         1 UNK         0.0000 
     46 H46        -5.4770  -43.2223    5.0608 H         1 UNK         0.0000 
     47 H47        -6.8793  -46.0650    8.0204 H         1 UNK         0.0000 
     48 H48        -9.1764  -45.7346    7.1984 H         1 UNK         0.0000 
@<TRIPOS>BOND
     1    1    2 2    
     2    2    3 1    
     3    2    4 1    
     4    4   11 ar   
     5    4   34 ar   
     6    5    6 ar   
     7    5   10 ar   
     8    5   34 ar   
     9    6    7 ar   
    10    6   22 1    
    11    7    8 ar   
    12    7   23 1    
    13    8    9 ar   
    14    8   24 1    
    15    9   10 ar   
    16    9   25 1    
    17   10   11 ar   
    18   11   12 1    
    19   12   26 1    
    20   12   27 1    
    21   12   13 1    
    22   13   14 1    
    23   13   28 1    
    24   13   29 1    
    25   14   15 1    
    26   14   30 1    
    27   14   31 1    
    28   15   16 1    
    29   16   17 ar   
    30   16   21 ar   
    31   17   18 ar   
    32   17   32 1    
    33   18   19 ar   
    34   18   37 1    
    35   19   20 ar   
    36   19   41 1    
    37   20   21 ar   
    38   20   36 1    
    39   21   33 1    
    40   34   35 1    
    41   38   39 ar   
    42   38   43 ar   
    43   38   44 1    
    44   39   40 ar   
    45   39   45 1    
    46   40   41 ar   
    47   40   46 1    
    48   41   42 ar   
    49   42   43 ar   
    50   42   47 1    
    51   43   48 1    
@<TRIPOS>SUBSTRUCTURE
     1 UNK         1 GROUP             0       ****    0 ROOT    
