@<TRIPOS>MOLECULE
68
43   46    1
SMALL
USER_CHARGES


@<TRIPOS>ATOM
      1 O1          3.7726  -49.6838    6.9455 O.co2     1 UNK         0.0000 
      2 C2          2.9100  -48.7925    6.7501 C.2       1 UNK         0.0000 
      3 O3          3.2295  -47.5839    6.7163 O.co2     1 UNK         0.0000 
      4 C4          1.4913  -49.1838    6.5587 C.2       1 UNK         0.0000 
      5 C5         -0.1868  -50.6387    6.5133 C.ar      1 UNK         0.0000 
      6 C6         -0.9631  -51.8099    6.5963 C.ar      1 UNK         0.0000 
      7 C7         -2.3546  -51.7196    6.4061 C.ar      1 UNK         0.0000 
      8 C8         -2.9393  -50.4632    6.1302 C.ar      1 UNK         0.0000 
      9 C9         -2.1382  -49.2957    6.0374 C.ar      1 UNK         0.0000 
     10 C10        -0.7392  -49.3608    6.2408 C.ar      1 UNK         0.0000 
     11 C11         0.3626  -48.4393    6.2579 C.2       1 UNK         0.0000 
     12 C12         0.2858  -46.9624    5.9975 C.3       1 UNK         0.0000 
     13 C13         0.3099  -46.1147    7.2841 C.3       1 UNK         0.0000 
     14 C14        -0.9470  -46.2726    8.1526 C.3       1 UNK         0.0000 
     15 O15        -2.0339  -45.7606    7.3984 O.3       1 UNK         0.0000 
     16 C16        -3.2649  -45.6384    8.0063 C.ar      1 UNK         0.0000 
     17 C17        -5.8320  -45.2982    9.1520 C.ar      1 UNK         0.0000 
     18 C18        -4.8424  -46.0260    9.8383 C.ar      1 UNK         0.0000 
     19 C19        -3.5646  -46.1963    9.2720 C.ar      1 UNK         0.0000 
     20 H20        -0.4810  -52.7477    6.8125 H         1 UNK         0.0000 
     21 H21        -2.9631  -52.6053    6.4682 H         1 UNK         0.0000 
     22 Cl22       -4.6522  -50.3570    5.9185 Cl        1 UNK         0.0000 
     23 H23        -2.6129  -48.3489    5.8313 H         1 UNK         0.0000 
     24 H24        -0.6031  -46.7219    5.4163 H         1 UNK         0.0000 
     25 H25         1.1268  -46.6655    5.3667 H         1 UNK         0.0000 
     26 H26         0.4122  -45.0603    7.0052 H         1 UNK         0.0000 
     27 H27         1.1933  -46.3513    7.8811 H         1 UNK         0.0000 
     28 H28        -0.8331  -45.6975    9.0727 H         1 UNK         0.0000 
     29 H29        -1.1059  -47.3195    8.4132 H         1 UNK         0.0000 
     30 H30        -2.8349  -46.7583    9.8317 H         1 UNK         0.0000 
     31 C31        -5.5501  -44.7469    7.8897 C.ar      1 UNK         0.0000 
     32 C32        -4.2682  -44.9219    7.3124 C.ar      1 UNK         0.0000 
     33 C33        -4.0002  -44.3707    6.0384 C.ar      1 UNK         0.0000 
     34 C34        -4.9987  -43.6492    5.3557 C.ar      1 UNK         0.0000 
     35 C35        -6.2700  -43.4716    5.9396 C.ar      1 UNK         0.0000 
     36 C36        -6.5447  -44.0200    7.2054 C.ar      1 UNK         0.0000 
     37 H37        -3.0325  -44.4979    5.5704 H         1 UNK         0.0000 
     38 H38        -4.7838  -43.2318    4.3761 H         1 UNK         0.0000 
     39 H39        -7.0328  -42.9142    5.4103 H         1 UNK         0.0000 
     40 H40        -7.5187  -43.8845    7.6476 H         1 UNK         0.0000 
     41 H41        -5.0576  -46.4517   10.8107 H         1 UNK         0.0000 
     42 H42        -6.8040  -45.1697    9.6054 H         1 UNK         0.0000 
     43 O43         1.1760  -50.5215    6.6916 O.3       1 UNK         0.0000 
@<TRIPOS>BOND
     1    1    2 2    
     2    2    3 1    
     3    2    4 1    
     4    4   11 2    
     5    4   43 1    
     6    5    6 ar   
     7    5   10 ar   
     8    5   43 1    
     9    6    7 ar   
    10    6   20 1    
    11    7    8 ar   
    12    7   21 1    
    13    8    9 ar   
    14    8   22 1    
    15    9   10 ar   
    16    9   23 1    
    17   10   11 1    
    18   11   12 1    
    19   12   24 1    
    20   12   25 1    
    21   12   13 1    
    22   13   14 1    
    23   13   26 1    
    24   13   27 1    
    25   14   15 1    
    26   14   28 1    
    27   14   29 1    
    28   15   16 1    
    29   16   19 ar   
    30   16   32 ar   
    31   17   18 ar   
    32   17   31 ar   
    33   17   42 1    
    34   18   19 ar   
    35   18   41 1    
    36   19   30 1    
    37   31   32 ar   
    38   31   36 ar   
    39   32   33 ar   
    40   33   34 ar   
    41   33   37 1    
    42   34   35 ar   
    43   34   38 1    
    44   35   36 ar   
    45   35   39 1    
    46   36   40 1    
@<TRIPOS>SUBSTRUCTURE
     1 UNK         1 GROUP             0       ****    0 ROOT    
