@<TRIPOS>MOLECULE
67
43   45    1
SMALL
USER_CHARGES


@<TRIPOS>ATOM
      1 O1          3.5644  -47.8285    6.1892 O.co2     1 UNK         0.0000 
      2 C2          3.0362  -48.8080    6.7428 C.2       1 UNK         0.0000 
      3 O3          3.6696  -49.4562    7.6245 O.co2     1 UNK         0.0000 
      4 C4          1.6425  -49.1600    6.4068 C.2       1 UNK         0.0000 
      5 C5         -0.1840  -50.4273    6.5471 C.ar      1 UNK         0.0000 
      6 C6         -1.0943  -51.4430    6.8742 C.ar      1 UNK         0.0000 
      7 C7         -2.3945  -51.3656    6.3648 C.ar      1 UNK         0.0000 
      8 C8         -2.7687  -50.2873    5.5289 C.ar      1 UNK         0.0000 
      9 C9         -1.8174  -49.2864    5.2062 C.ar      1 UNK         0.0000 
     10 C10        -0.4966  -49.3367    5.7159 C.ar      1 UNK         0.0000 
     11 C11         0.6834  -48.5264    5.6415 C.2       1 UNK         0.0000 
     12 C12         0.8055  -47.2137    4.9079 C.3       1 UNK         0.0000 
     13 C13         0.8087  -45.9824    5.8366 C.3       1 UNK         0.0000 
     14 C14        -0.4323  -45.8572    6.7332 C.3       1 UNK         0.0000 
     15 O15        -1.5675  -45.5507    5.9368 O.3       1 UNK         0.0000 
     16 C16        -2.8022  -45.4950    6.5528 C.ar      1 UNK         0.0000 
     17 C17        -3.0327  -45.8036    7.9119 C.ar      1 UNK         0.0000 
     18 C18        -4.3369  -45.7633    8.4552 C.ar      1 UNK         0.0000 
     19 C19        -4.5594  -46.1410    9.9070 C.3       1 UNK         0.0000 
     20 C20        -5.4287  -45.3910    7.6286 C.ar      1 UNK         0.0000 
     21 Cl21       -7.0379  -45.3587    8.2748 Cl        1 UNK         0.0000 
     22 C22        -5.2055  -45.0557    6.2744 C.ar      1 UNK         0.0000 
     23 C23        -6.3500  -44.6517    5.3655 C.3       1 UNK         0.0000 
     24 C24        -3.8961  -45.1147    5.7492 C.ar      1 UNK         0.0000 
     25 H25        -0.7929  -52.2665    7.5077 H         1 UNK         0.0000 
     26 H26        -3.1325  -52.1281    6.6074 H         1 UNK         0.0000 
     27 H27        -3.7691  -50.2255    5.1378 H         1 UNK         0.0000 
     28 H28        -2.1044  -48.4656    4.5637 H         1 UNK         0.0000 
     29 H29        -0.0274  -47.1393    4.2087 H         1 UNK         0.0000 
     30 H30         1.7050  -47.1979    4.3028 H         1 UNK         0.0000 
     31 H31         0.9167  -45.0844    5.2419 H         1 UNK         0.0000 
     32 H32         1.6917  -46.0260    6.4709 H         1 UNK         0.0000 
     33 H33        -0.2792  -45.0497    7.4537 H         1 UNK         0.0000 
     34 H34        -0.5700  -46.7818    7.2955 H         1 UNK         0.0000 
     35 H35        -2.2274  -46.0944    8.5689 H         1 UNK         0.0000 
     36 H36        -5.1508  -45.3838   10.4243 H         1 UNK         0.0000 
     37 H37        -5.0939  -47.0887    9.9694 H         1 UNK         0.0000 
     38 H38        -3.6172  -46.2594   10.4265 H         1 UNK         0.0000 
     39 H39        -5.9980  -44.3903    4.3728 H         1 UNK         0.0000 
     40 H40        -7.0611  -45.4708    5.2673 H         1 UNK         0.0000 
     41 H41        -6.8728  -43.7882    5.7746 H         1 UNK         0.0000 
     42 H42        -3.7237  -44.8700    4.7154 H         1 UNK         0.0000 
     43 O43         1.1314  -50.3169    6.9579 O.3       1 UNK         0.0000 
@<TRIPOS>BOND
     1    1    2 2    
     2    2    3 1    
     3    2    4 1    
     4    4   11 2    
     5    4   43 1    
     6    5    6 ar   
     7    5   10 ar   
     8    5   43 1    
     9    6    7 ar   
    10    6   25 1    
    11    7    8 ar   
    12    7   26 1    
    13    8    9 ar   
    14    8   27 1    
    15    9   10 ar   
    16    9   28 1    
    17   10   11 1    
    18   11   12 1    
    19   12   29 1    
    20   12   30 1    
    21   12   13 1    
    22   13   14 1    
    23   13   31 1    
    24   13   32 1    
    25   14   15 1    
    26   14   33 1    
    27   14   34 1    
    28   15   16 1    
    29   16   17 ar   
    30   16   24 ar   
    31   17   18 ar   
    32   17   35 1    
    33   18   19 1    
    34   18   20 ar   
    35   19   36 1    
    36   19   37 1    
    37   19   38 1    
    38   20   21 1    
    39   20   22 ar   
    40   22   23 1    
    41   22   24 ar   
    42   23   39 1    
    43   23   40 1    
    44   23   41 1    
    45   24   42 1    
@<TRIPOS>SUBSTRUCTURE
     1 UNK         1 GROUP             0       ****    0 ROOT    
