@<TRIPOS>MOLECULE
23
43   46    1
SMALL
USER_CHARGES


@<TRIPOS>ATOM
      1 O1          3.9452  -49.5972    7.0411 O.co2     1 UNK         0.0000 
      2 C2          3.1365  -48.7364    6.6226 C.2       1 UNK         0.0000 
      3 O3          3.5094  -47.5621    6.3942 O.co2     1 UNK         0.0000 
      4 C4          1.7049  -49.1070    6.4070 C.2       1 UNK         0.0000 
      5 S5          1.3259  -50.7950    6.6839 S.3       1 UNK         0.0000 
      6 C6         -0.3704  -50.5332    6.3111 C.ar      1 UNK         0.0000 
      7 C7         -1.4069  -51.4759    6.3365 C.ar      1 UNK         0.0000 
      8 C8         -2.7213  -51.0964    6.0060 C.ar      1 UNK         0.0000 
      9 C9         -2.9841  -49.7599    5.6503 C.ar      1 UNK         0.0000 
     10 C10        -1.9354  -48.8209    5.6277 C.ar      1 UNK         0.0000 
     11 C11        -0.6073  -49.1678    5.9622 C.ar      1 UNK         0.0000 
     12 C12         0.5988  -48.3581    6.0318 C.2       1 UNK         0.0000 
     13 C13         0.5988  -46.8757    5.7329 C.3       1 UNK         0.0000 
     14 C14         0.5107  -45.9949    6.9975 C.3       1 UNK         0.0000 
     15 C15        -0.7268  -46.2231    7.8886 C.3       1 UNK         0.0000 
     16 O16        -1.9204  -45.8789    7.1949 O.3       1 UNK         0.0000 
     17 C17        -3.1305  -45.9365    7.8645 C.ar      1 UNK         0.0000 
     18 C18        -5.6581  -45.9747    9.1652 C.ar      1 UNK         0.0000 
     19 C19        -4.5054  -46.3958    9.8517 C.ar      1 UNK         0.0000 
     20 C20        -3.2501  -46.3737    9.2104 C.ar      1 UNK         0.0000 
     21 H21        -1.1976  -52.5010    6.6101 H         1 UNK         0.0000 
     22 H22        -3.5249  -51.8146    6.0318 H         1 UNK         0.0000 
     23 H23        -3.9856  -49.4504    5.3944 H         1 UNK         0.0000 
     24 H24        -2.1614  -47.8019    5.3568 H         1 UNK         0.0000 
     25 H25        -0.2263  -46.6286    5.0692 H         1 UNK         0.0000 
     26 H26         1.5004  -46.6009    5.1714 H         1 UNK         0.0000 
     27 H27         0.5403  -44.9448    6.6976 H         1 UNK         0.0000 
     28 H28         1.4018  -46.1649    7.6017 H         1 UNK         0.0000 
     29 H29        -0.6289  -45.5830    8.7627 H         1 UNK         0.0000 
     30 H30        -0.7629  -47.2543    8.2399 H         1 UNK         0.0000 
     31 H31        -2.3982  -46.7023    9.7956 H         1 UNK         0.0000 
     32 C32        -5.5579  -45.5466    7.8298 C.ar      1 UNK         0.0000 
     33 C33        -4.3029  -45.5385    7.1795 C.ar      1 UNK         0.0000 
     34 C34        -4.2262  -45.1320    5.8356 C.ar      1 UNK         0.0000 
     35 C35        -5.3873  -44.7274    5.1423 C.ar      1 UNK         0.0000 
     36 C36        -6.6341  -44.7213    5.7969 C.ar      1 UNK         0.0000 
     37 C37        -6.7133  -45.1304    7.1466 C.ar      1 UNK         0.0000 
     38 H38        -3.2840  -45.1204    5.2971 H         1 UNK         0.0000 
     39 H39        -5.3241  -44.4188    4.1042 H         1 UNK         0.0000 
     40 H40        -7.5218  -44.4074    5.2696 H         1 UNK         0.0000 
     41 H41        -7.6788  -45.1188    7.6403 H         1 UNK         0.0000 
     42 H42        -4.5730  -46.7368   10.8723 H         1 UNK         0.0000 
     43 H43        -6.6110  -45.9950    9.6786 H         1 UNK         0.0000 
@<TRIPOS>BOND
     1    1    2 2    
     2    2    3 1    
     3    2    4 1    
     4    4    5 1    
     5    4   12 2    
     6    5    6 1    
     7    6    7 ar   
     8    6   11 ar   
     9    7    8 ar   
    10    7   21 1    
    11    8    9 ar   
    12    8   22 1    
    13    9   10 ar   
    14    9   23 1    
    15   10   11 ar   
    16   10   24 1    
    17   11   12 1    
    18   12   13 1    
    19   13   25 1    
    20   13   26 1    
    21   13   14 1    
    22   14   15 1    
    23   14   27 1    
    24   14   28 1    
    25   15   16 1    
    26   15   29 1    
    27   15   30 1    
    28   16   17 1    
    29   17   20 ar   
    30   17   33 ar   
    31   18   19 ar   
    32   18   32 ar   
    33   18   43 1    
    34   19   20 ar   
    35   19   42 1    
    36   20   31 1    
    37   32   33 ar   
    38   32   37 ar   
    39   33   34 ar   
    40   34   35 ar   
    41   34   38 1    
    42   35   36 ar   
    43   35   39 1    
    44   36   37 ar   
    45   36   40 1    
    46   37   41 1    
@<TRIPOS>SUBSTRUCTURE
     1 UNK         1 GROUP             0       ****    0 ROOT    
