@<TRIPOS>MOLECULE
26
43   46    1
SMALL
USER_CHARGES


@<TRIPOS>ATOM
      1 O1          3.8290  -49.9082    7.3567 O.co2     1 UNK         0.0000 
      2 C2          3.1153  -49.0416    6.8012 C.2       1 UNK         0.0000 
      3 O3          3.5513  -47.8977    6.5562 O.co2     1 UNK         0.0000 
      4 C4          1.7057  -49.3580    6.4403 C.2       1 UNK         0.0000 
      5 C5         -0.1076  -50.6487    6.3793 C.ar      1 UNK         0.0000 
      6 C6         -1.0211  -51.7084    6.5402 C.ar      1 UNK         0.0000 
      7 C7         -2.3348  -51.5531    6.0492 C.ar      1 UNK         0.0000 
      8 C8         -2.6993  -50.3586    5.3936 C.ar      1 UNK         0.0000 
      9 C9         -1.7635  -49.3099    5.2420 C.ar      1 UNK         0.0000 
     10 C10        -0.4423  -49.4338    5.7433 C.ar      1 UNK         0.0000 
     11 C11         0.7328  -48.6071    5.8015 C.2       1 UNK         0.0000 
     12 C12         0.8592  -47.2049    5.2675 C.3       1 UNK         0.0000 
     13 C13         0.9701  -46.1519    6.3924 C.3       1 UNK         0.0000 
     14 C14        -0.0852  -45.0395    6.3276 C.3       1 UNK         0.0000 
     15 O15        -1.4118  -45.4805    6.0441 O.3       1 UNK         0.0000 
     16 C16        -2.2386  -45.8040    7.0949 C.ar      1 UNK         0.0000 
     17 C17        -4.0387  -46.5572    9.1587 C.ar      1 UNK         0.0000 
     18 C18        -2.7241  -47.0517    9.1502 C.ar      1 UNK         0.0000 
     19 C19        -1.8288  -46.6752    8.1339 C.ar      1 UNK         0.0000 
     20 H20        -0.7241  -52.6191    7.0419 H         1 UNK         0.0000 
     21 H21        -3.0568  -52.3474    6.1618 H         1 UNK         0.0000 
     22 H22        -3.7027  -50.2338    5.0158 H         1 UNK         0.0000 
     23 H23        -2.0623  -48.3873    4.7602 H         1 UNK         0.0000 
     24 H24         0.0186  -46.9829    4.6116 H         1 UNK         0.0000 
     25 H25         1.7413  -47.1366    4.6230 H         1 UNK         0.0000 
     26 H26         1.9528  -45.6851    6.3456 H         1 UNK         0.0000 
     27 H27         0.9550  -46.6329    7.3658 H         1 UNK         0.0000 
     28 H28         0.1913  -44.3765    5.5164 H         1 UNK         0.0000 
     29 H29        -0.0677  -44.4348    7.2308 H         1 UNK         0.0000 
     30 H30        -0.8492  -47.1142    8.1369 H         1 UNK         0.0000 
     31 C31        -4.4644  -45.6869    8.1312 C.ar      1 UNK         0.0000 
     32 C32        -3.5686  -45.3157    7.0918 C.ar      1 UNK         0.0000 
     33 C33        -4.0196  -44.4491    6.0697 C.ar      1 UNK         0.0000 
     34 C34        -5.3473  -43.9766    6.0646 C.ar      1 UNK         0.0000 
     35 C35        -6.2357  -44.3575    7.0895 C.ar      1 UNK         0.0000 
     36 C36        -5.7910  -45.2055    8.1244 C.ar      1 UNK         0.0000 
     37 H37        -3.3603  -44.1405    5.2743 H         1 UNK         0.0000 
     38 H38        -5.6744  -43.3185    5.2717 H         1 UNK         0.0000 
     39 H39        -7.2548  -43.9991    7.0843 H         1 UNK         0.0000 
     40 H40        -6.4744  -45.4962    8.9093 H         1 UNK         0.0000 
     41 H41        -2.4004  -47.7370    9.9189 H         1 UNK         0.0000 
     42 H42        -4.7163  -46.8570    9.9410 H         1 UNK         0.0000 
     43 O43         1.2056  -50.5983    6.7955 O.3       1 UNK         0.0000 
@<TRIPOS>BOND
     1    1    2 2    
     2    2    3 1    
     3    2    4 1    
     4    4   11 2    
     5    4   43 1    
     6    5    6 ar   
     7    5   10 ar   
     8    5   43 1    
     9    6    7 ar   
    10    6   20 1    
    11    7    8 ar   
    12    7   21 1    
    13    8    9 ar   
    14    8   22 1    
    15    9   10 ar   
    16    9   23 1    
    17   10   11 1    
    18   11   12 1    
    19   12   24 1    
    20   12   25 1    
    21   12   13 1    
    22   13   14 1    
    23   13   26 1    
    24   13   27 1    
    25   14   15 1    
    26   14   28 1    
    27   14   29 1    
    28   15   16 1    
    29   16   19 ar   
    30   16   32 ar   
    31   17   18 ar   
    32   17   31 ar   
    33   17   42 1    
    34   18   19 ar   
    35   18   41 1    
    36   19   30 1    
    37   31   32 ar   
    38   31   36 ar   
    39   32   33 ar   
    40   33   34 ar   
    41   33   37 1    
    42   34   35 ar   
    43   34   38 1    
    44   35   36 ar   
    45   35   39 1    
    46   36   40 1    
@<TRIPOS>SUBSTRUCTURE
     1 UNK         1 GROUP             0       ****    0 ROOT    
