@<TRIPOS>MOLECULE
43
44   47    1
SMALL
USER_CHARGES


@<TRIPOS>ATOM
      1 O1          3.5643  -47.8843    6.3334 O.co2     1 UNK         0.0000 
      2 C2          2.9990  -48.9049    6.7868 C.2       1 UNK         0.0000 
      3 O3          3.5887  -49.7095    7.5467 O.co2     1 UNK         0.0000 
      4 C4          1.5874  -49.1583    6.4235 C.ar      1 UNK         0.0000 
      5 C5         -0.3136  -50.4258    6.4859 C.ar      1 UNK         0.0000 
      6 C6         -1.3036  -51.4031    6.6994 C.ar      1 UNK         0.0000 
      7 C7         -2.5845  -51.2164    6.1482 C.ar      1 UNK         0.0000 
      8 C8         -2.8632  -50.0626    5.3949 C.ar      1 UNK         0.0000 
      9 C9         -1.8627  -49.0917    5.1852 C.ar      1 UNK         0.0000 
     10 C10        -0.5602  -49.2479    5.7208 C.ar      1 UNK         0.0000 
     11 C11         0.6473  -48.4594    5.6954 C.ar      1 UNK         0.0000 
     12 C12         0.8265  -47.1229    5.0263 C.3       1 UNK         0.0000 
     13 C13         0.8821  -45.9477    6.0225 C.3       1 UNK         0.0000 
     14 C14        -0.3512  -45.8393    6.9293 C.3       1 UNK         0.0000 
     15 O15        -1.4585  -45.3868    6.1598 O.3       1 UNK         0.0000 
     16 C16        -2.6734  -45.2518    6.7942 C.ar      1 UNK         0.0000 
     17 C17        -4.9576  -44.3709    6.6682 C.ar      1 UNK         0.0000 
     18 C18        -3.6845  -44.5617    6.0974 C.ar      1 UNK         0.0000 
     19 H19        -1.0808  -52.2831    7.2830 H         1 UNK         0.0000 
     20 H20        -3.3514  -51.9594    6.3077 H         1 UNK         0.0000 
     21 H21        -3.8475  -49.9191    4.9764 H         1 UNK         0.0000 
     22 H22        -2.0911  -48.2065    4.6076 H         1 UNK         0.0000 
     23 H23         0.0168  -46.9558    4.3169 H         1 UNK         0.0000 
     24 H24         1.7408  -47.1287    4.4309 H         1 UNK         0.0000 
     25 H25         1.0222  -45.0114    5.4834 H         1 UNK         0.0000 
     26 H26         1.7641  -46.0601    6.6515 H         1 UNK         0.0000 
     27 H27        -0.1558  -45.1260    7.7294 H         1 UNK         0.0000 
     28 H28        -0.5515  -46.8060    7.3926 H         1 UNK         0.0000 
     29 H29        -3.4773  -44.1655    5.1146 H         1 UNK         0.0000 
     30 C30        -2.9615  -45.7676    8.0827 C.ar      1 UNK         0.0000 
     31 H31        -5.7169  -43.8324    6.1167 H         1 UNK         0.0000 
     32 C32        -4.2421  -45.6033    8.6496 C.ar      1 UNK         0.0000 
     33 C33        -5.2428  -44.8900    7.9458 C.ar      1 UNK         0.0000 
     34 C34        -6.5177  -44.7121    8.5223 C.ar      1 UNK         0.0000 
     35 C35        -6.8021  -45.2571    9.7910 C.ar      1 UNK         0.0000 
     36 C36        -5.8102  -45.9817   10.4853 C.ar      1 UNK         0.0000 
     37 C37        -4.5321  -46.1533    9.9158 C.ar      1 UNK         0.0000 
     38 H38        -7.2854  -44.1649    7.9948 H         1 UNK         0.0000 
     39 H39        -7.7781  -45.1176   10.2340 H         1 UNK         0.0000 
     40 H40        -6.0317  -46.4019   11.4577 H         1 UNK         0.0000 
     41 H41        -3.7793  -46.7042   10.4587 H         1 UNK         0.0000 
     42 H42        -2.2210  -46.3075    8.6524 H         1 UNK         0.0000 
     43 N43         1.0036  -50.3231    6.8929 N.pl3     1 UNK         0.0000 
     44 H44         1.5367  -50.9666    7.4620 H         1 UNK         0.0000 
@<TRIPOS>BOND
     1    1    2 2    
     2    2    3 1    
     3    2    4 1    
     4    4   11 ar   
     5    4   43 ar   
     6    5    6 ar   
     7    5   10 ar   
     8    5   43 ar   
     9    6    7 ar   
    10    6   19 1    
    11    7    8 ar   
    12    7   20 1    
    13    8    9 ar   
    14    8   21 1    
    15    9   10 ar   
    16    9   22 1    
    17   10   11 ar   
    18   11   12 1    
    19   12   23 1    
    20   12   24 1    
    21   12   13 1    
    22   13   14 1    
    23   13   25 1    
    24   13   26 1    
    25   14   15 1    
    26   14   27 1    
    27   14   28 1    
    28   15   16 1    
    29   16   18 ar   
    30   16   30 ar   
    31   17   18 ar   
    32   17   31 1    
    33   17   33 ar   
    34   18   29 1    
    35   30   32 ar   
    36   30   42 1    
    37   32   33 ar   
    38   32   37 ar   
    39   33   34 ar   
    40   34   35 ar   
    41   34   38 1    
    42   35   36 ar   
    43   35   39 1    
    44   36   37 ar   
    45   36   40 1    
    46   37   41 1    
    47   43   44 1    
@<TRIPOS>SUBSTRUCTURE
     1 UNK         1 GROUP             0       ****    0 ROOT    
