@<TRIPOS>MOLECULE
44
44   47    1
SMALL
USER_CHARGES


@<TRIPOS>ATOM
      1 O1          3.5638  -47.8398    6.3294 O.co2     1 UNK         0.0000 
      2 C2          3.0055  -48.8795    6.7362 C.2       1 UNK         0.0000 
      3 O3          3.6001  -49.7033    7.4706 O.co2     1 UNK         0.0000 
      4 C4          1.6002  -49.1348    6.3550 C.ar      1 UNK         0.0000 
      5 C5         -0.2707  -50.4496    6.3395 C.ar      1 UNK         0.0000 
      6 C6         -1.2446  -51.4534    6.4978 C.ar      1 UNK         0.0000 
      7 C7         -2.5290  -51.2642    5.9573 C.ar      1 UNK         0.0000 
      8 C8         -2.8264  -50.0751    5.2634 C.ar      1 UNK         0.0000 
      9 C9         -1.8457  -49.0732    5.1109 C.ar      1 UNK         0.0000 
     10 C10        -0.5465  -49.2371    5.6460 C.ar      1 UNK         0.0000 
     11 C11         0.6398  -48.4122    5.6803 C.ar      1 UNK         0.0000 
     12 C12         0.7658  -47.0204    5.1109 C.3       1 UNK         0.0000 
     13 C13         0.8382  -45.9174    6.1894 C.3       1 UNK         0.0000 
     14 C14        -0.2514  -46.0044    7.2636 C.3       1 UNK         0.0000 
     15 O15        -1.5116  -45.6953    6.6849 O.3       1 UNK         0.0000 
     16 C16        -2.6160  -45.6893    7.5101 C.ar      1 UNK         0.0000 
     17 C17        -4.9357  -45.6105    9.1489 C.ar      1 UNK         0.0000 
     18 C18        -3.7951  -46.3194    9.5617 C.ar      1 UNK         0.0000 
     19 C19        -2.6431  -46.3574    8.7572 C.ar      1 UNK         0.0000 
     20 H20        -1.0077  -52.3586    7.0271 H         1 UNK         0.0000 
     21 H21        -3.2862  -52.0252    6.0738 H         1 UNK         0.0000 
     22 H22        -3.8126  -49.9204    4.8501 H         1 UNK         0.0000 
     23 H23        -2.0817  -48.1638    4.5782 H         1 UNK         0.0000 
     24 H24        -0.0880  -46.8183    4.4620 H         1 UNK         0.0000 
     25 H25         1.6452  -46.9604    4.4630 H         1 UNK         0.0000 
     26 H26         0.8127  -44.9396    5.7098 H         1 UNK         0.0000 
     27 H27         1.8058  -45.9783    6.6859 H         1 UNK         0.0000 
     28 H28        -0.0397  -45.2807    8.0530 H         1 UNK         0.0000 
     29 H29        -0.2389  -46.9911    7.7216 H         1 UNK         0.0000 
     30 H30        -1.8003  -46.9189    9.1152 H         1 UNK         0.0000 
     31 C31        -4.9328  -44.9377    7.9019 C.ar      1 UNK         0.0000 
     32 C32        -3.7720  -44.9848    7.0812 C.ar      1 UNK         0.0000 
     33 C33        -3.7720  -44.3169    5.8386 C.ar      1 UNK         0.0000 
     34 C34        -4.9088  -43.6148    5.4042 C.ar      1 UNK         0.0000 
     35 C35        -6.0601  -43.5677    6.2105 C.ar      1 UNK         0.0000 
     36 C36        -6.0722  -44.2246    7.4561 C.ar      1 UNK         0.0000 
     37 H37        -2.9025  -44.3383    5.2009 H         1 UNK         0.0000 
     38 H38        -4.9003  -43.1136    4.4481 H         1 UNK         0.0000 
     39 H39        -6.9301  -43.0279    5.8753 H         1 UNK         0.0000 
     40 H40        -6.9613  -44.1701    8.0625 H         1 UNK         0.0000 
     41 H41        -3.7969  -46.8284   10.5131 H         1 UNK         0.0000 
     42 Cl42       -6.3143  -45.5879   10.1970 Cl        1 UNK         0.0000 
     43 N43         1.0415  -50.3407    6.7514 N.pl3     1 UNK         0.0000 
     44 H44         1.5788  -51.0058    7.2849 H         1 UNK         0.0000 
@<TRIPOS>BOND
     1    1    2 2    
     2    2    3 1    
     3    2    4 1    
     4    4   11 ar   
     5    4   43 ar   
     6    5    6 ar   
     7    5   10 ar   
     8    5   43 ar   
     9    6    7 ar   
    10    6   20 1    
    11    7    8 ar   
    12    7   21 1    
    13    8    9 ar   
    14    8   22 1    
    15    9   10 ar   
    16    9   23 1    
    17   10   11 ar   
    18   11   12 1    
    19   12   24 1    
    20   12   25 1    
    21   12   13 1    
    22   13   14 1    
    23   13   26 1    
    24   13   27 1    
    25   14   15 1    
    26   14   28 1    
    27   14   29 1    
    28   15   16 1    
    29   16   19 ar   
    30   16   32 ar   
    31   17   18 ar   
    32   17   31 ar   
    33   17   42 1    
    34   18   19 ar   
    35   18   41 1    
    36   19   30 1    
    37   31   32 ar   
    38   31   36 ar   
    39   32   33 ar   
    40   33   34 ar   
    41   33   37 1    
    42   34   35 ar   
    43   34   38 1    
    44   35   36 ar   
    45   35   39 1    
    46   36   40 1    
    47   43   44 1    
@<TRIPOS>SUBSTRUCTURE
     1 UNK         1 GROUP             0       ****    0 ROOT    
