@<TRIPOS>MOLECULE
41
49   52    1
SMALL
USER_CHARGES


@<TRIPOS>ATOM
      1 O1          3.6188  -50.0261    7.1261 O.co2     1 UNK         0.0000 
      2 C2          2.9664  -49.0185    6.7704 C.2       1 UNK         0.0000 
      3 O3          3.5028  -47.8881    6.7185 O.co2     1 UNK         0.0000 
      4 C4          1.5378  -49.1785    6.4066 C.ar      1 UNK         0.0000 
      5 C5         -0.3286  -50.4688    6.1368 C.ar      1 UNK         0.0000 
      6 C6         -1.2909  -51.4982    6.0796 C.ar      1 UNK         0.0000 
      7 C7         -2.6052  -51.1970    5.6648 C.ar      1 UNK         0.0000 
      8 C8         -2.9395  -49.8757    5.3061 C.ar      1 UNK         0.0000 
      9 C9         -1.9616  -48.8533    5.3588 C.ar      1 UNK         0.0000 
     10 C10        -0.6371  -49.1247    5.7873 C.ar      1 UNK         0.0000 
     11 C11         0.5443  -48.3227    5.9852 C.ar      1 UNK         0.0000 
     12 C12         0.6195  -46.8348    5.7937 C.3       1 UNK         0.0000 
     13 C13         0.6544  -46.0387    7.1131 C.3       1 UNK         0.0000 
     14 C14        -0.2727  -46.5426    8.2488 C.3       1 UNK         0.0000 
     15 O15        -1.1995  -45.5833    8.7170 O.3       1 UNK         0.0000 
     16 C16        -2.4514  -45.6189    8.1601 C.ar      1 UNK         0.0000 
     17 C17        -3.5606  -45.8237    9.0088 C.ar      1 UNK         0.0000 
     18 C18        -4.8673  -45.7979    8.4847 C.ar      1 UNK         0.0000 
     19 C19        -5.0701  -45.5418    7.1156 C.ar      1 UNK         0.0000 
     20 C20        -3.9629  -45.3736    6.2631 C.ar      1 UNK         0.0000 
     21 C21        -2.6590  -45.4011    6.7853 C.ar      1 UNK         0.0000 
     22 H22        -1.0321  -52.5072    6.3509 H         1 UNK         0.0000 
     23 H23        -3.3583  -51.9726    5.6232 H         1 UNK         0.0000 
     24 H24        -3.9447  -49.6401    4.9833 H         1 UNK         0.0000 
     25 H25        -2.2394  -47.8446    5.0911 H         1 UNK         0.0000 
     26 H26        -0.2165  -46.4977    5.1782 H         1 UNK         0.0000 
     27 H27         1.5009  -46.5787    5.2024 H         1 UNK         0.0000 
     28 H28         0.4617  -44.9798    6.9165 H         1 UNK         0.0000 
     29 H29         1.6838  -46.0610    7.4877 H         1 UNK         0.0000 
     30 H30         0.3637  -46.7558    9.1142 H         1 UNK         0.0000 
     31 H31        -0.7804  -47.4835    8.0268 H         1 UNK         0.0000 
     32 H32        -3.4052  -45.9777   10.0674 H         1 UNK         0.0000 
     33 H33        -1.8256  -45.2075    6.1295 H         1 UNK         0.0000 
     34 N34         1.0071  -50.4487    6.4916 N.pl3     1 UNK         0.0000 
     35 H35         1.5851  -51.2218    6.7936 H         1 UNK         0.0000 
     36 H36        -4.1090  -45.1870    5.2114 H         1 UNK         0.0000 
     37 H37        -5.7131  -45.9475    9.1405 H         1 UNK         0.0000 
     38 O38        -6.3410  -45.4189    6.6163 O.3       1 UNK         0.0000 
     39 C39        -7.7336  -41.4738    6.7170 C.ar      1 UNK         0.0000 
     40 C40        -7.0295  -41.9323    5.5886 C.ar      1 UNK         0.0000 
     41 C41        -6.5719  -43.2667    5.5411 C.ar      1 UNK         0.0000 
     42 C42        -6.8370  -44.1375    6.6183 C.ar      1 UNK         0.0000 
     43 C43        -7.5850  -43.6840    7.7222 C.ar      1 UNK         0.0000 
     44 C44        -8.0381  -42.3539    7.7682 C.ar      1 UNK         0.0000 
     45 H45        -8.0407  -40.4397    6.7738 H         1 UNK         0.0000 
     46 H46        -6.8347  -41.2580    4.7659 H         1 UNK         0.0000 
     47 H47        -6.0100  -43.6068    4.6861 H         1 UNK         0.0000 
     48 H48        -7.7915  -44.3537    8.5460 H         1 UNK         0.0000 
     49 H49        -8.5855  -42.0032    8.6387 H         1 UNK         0.0000 
@<TRIPOS>BOND
     1    1    2 2    
     2    2    3 1    
     3    2    4 1    
     4    4   11 ar   
     5    4   34 ar   
     6    5    6 ar   
     7    5   10 ar   
     8    5   34 ar   
     9    6    7 ar   
    10    6   22 1    
    11    7    8 ar   
    12    7   23 1    
    13    8    9 ar   
    14    8   24 1    
    15    9   10 ar   
    16    9   25 1    
    17   10   11 ar   
    18   11   12 1    
    19   12   26 1    
    20   12   27 1    
    21   12   13 1    
    22   13   14 1    
    23   13   28 1    
    24   13   29 1    
    25   14   15 1    
    26   14   30 1    
    27   14   31 1    
    28   15   16 1    
    29   16   17 ar   
    30   16   21 ar   
    31   17   18 ar   
    32   17   32 1    
    33   18   19 ar   
    34   18   37 1    
    35   19   20 ar   
    36   19   38 1    
    37   20   21 ar   
    38   20   36 1    
    39   21   33 1    
    40   34   35 1    
    41   38   42 1    
    42   39   40 ar   
    43   39   44 ar   
    44   39   45 1    
    45   40   41 ar   
    46   40   46 1    
    47   41   42 ar   
    48   41   47 1    
    49   42   43 ar   
    50   43   44 ar   
    51   43   48 1    
    52   44   49 1    
@<TRIPOS>SUBSTRUCTURE
     1 UNK         1 GROUP             0       ****    0 ROOT    
