@<TRIPOS>MOLECULE
33
38   40    1
SMALL
USER_CHARGES


@<TRIPOS>ATOM
      1 O1          3.6157  -50.1315    7.3800 O.co2     1 UNK         0.0000 
      2 C2          3.0170  -49.1138    6.9676 C.2       1 UNK         0.0000 
      3 O3          3.5644  -47.9851    6.9019 O.co2     1 UNK         0.0000 
      4 C4          1.6043  -49.2459    6.5419 C.ar      1 UNK         0.0000 
      5 C5         -0.3113  -50.4722    6.2833 C.ar      1 UNK         0.0000 
      6 C6         -1.3178  -51.4535    6.2650 C.ar      1 UNK         0.0000 
      7 C7         -2.5967  -51.1141    5.7749 C.ar      1 UNK         0.0000 
      8 C8         -2.8523  -49.8053    5.3101 C.ar      1 UNK         0.0000 
      9 C9         -1.8339  -48.8336    5.3312 C.ar      1 UNK         0.0000 
     10 C10        -0.5363  -49.1416    5.8192 C.ar      1 UNK         0.0000 
     11 C11         0.6789  -48.3880    5.9873 C.ar      1 UNK         0.0000 
     12 C12         0.8824  -46.9418    5.6154 C.3       1 UNK         0.0000 
     13 C13         0.6891  -45.9795    6.8002 C.3       1 UNK         0.0000 
     14 C14        -0.7339  -45.9723    7.3808 C.3       1 UNK         0.0000 
     15 O15        -1.6585  -45.6662    6.3443 O.3       1 UNK         0.0000 
     16 C16        -2.9587  -45.3534    6.6806 C.ar      1 UNK         0.0000 
     17 C17        -3.4415  -45.2780    8.0126 C.ar      1 UNK         0.0000 
     18 C18        -4.7727  -44.8870    8.2638 C.ar      1 UNK         0.0000 
     19 C19        -5.6345  -44.5827    7.1953 C.ar      1 UNK         0.0000 
     20 C20        -5.1783  -44.6966    5.8690 C.ar      1 UNK         0.0000 
     21 C21        -3.8496  -45.0887    5.6179 C.ar      1 UNK         0.0000 
     22 H22        -1.0976  -52.4485    6.6218 H         1 UNK         0.0000 
     23 H23        -3.3720  -51.8638    5.7580 H         1 UNK         0.0000 
     24 H24        -3.8398  -49.5448    4.9387 H         1 UNK         0.0000 
     25 H25        -2.0372  -47.8283    4.9825 H         1 UNK         0.0000 
     26 H26         0.2119  -46.6666    4.8034 H         1 UNK         0.0000 
     27 H27         1.8875  -46.8041    5.2117 H         1 UNK         0.0000 
     28 H28         0.9411  -44.9683    6.4741 H         1 UNK         0.0000 
     29 H29         1.3987  -46.2206    7.5935 H         1 UNK         0.0000 
     30 H30        -0.7710  -45.2292    8.1737 H         1 UNK         0.0000 
     31 H31        -0.9778  -46.9317    7.8279 H         1 UNK         0.0000 
     32 H32        -2.8136  -45.5076    8.8532 H         1 UNK         0.0000 
     33 H33        -3.5008  -45.1803    4.6040 H         1 UNK         0.0000 
     34 N34         1.0091  -50.4890    6.6902 N.pl3     1 UNK         0.0000 
     35 H35         1.5399  -51.2626    7.0744 H         1 UNK         0.0000 
     36 H36        -5.8318  -44.4759    5.0392 H         1 UNK         0.0000 
     37 Cl37       -7.2450  -44.0498    7.5067 Cl        1 UNK         0.0000 
     38 H38        -5.1205  -44.8093    9.2815 H         1 UNK         0.0000 
@<TRIPOS>BOND
     1    1    2 2    
     2    2    3 1    
     3    2    4 1    
     4    4   11 ar   
     5    4   34 ar   
     6    5    6 ar   
     7    5   10 ar   
     8    5   34 ar   
     9    6    7 ar   
    10    6   22 1    
    11    7    8 ar   
    12    7   23 1    
    13    8    9 ar   
    14    8   24 1    
    15    9   10 ar   
    16    9   25 1    
    17   10   11 ar   
    18   11   12 1    
    19   12   26 1    
    20   12   27 1    
    21   12   13 1    
    22   13   14 1    
    23   13   28 1    
    24   13   29 1    
    25   14   15 1    
    26   14   30 1    
    27   14   31 1    
    28   15   16 1    
    29   16   17 ar   
    30   16   21 ar   
    31   17   18 ar   
    32   17   32 1    
    33   18   19 ar   
    34   18   38 1    
    35   19   20 ar   
    36   19   37 1    
    37   20   21 ar   
    38   20   36 1    
    39   21   33 1    
    40   34   35 1    
@<TRIPOS>SUBSTRUCTURE
     1 UNK         1 GROUP             0       ****    0 ROOT    
