@<TRIPOS>MOLECULE
29
41   43    1
SMALL
USER_CHARGES


@<TRIPOS>ATOM
      1 O1          3.4235  -47.4990    6.3034 O.co2     1 UNK         0.0000 
      2 C2          3.0281  -48.6146    6.7306 C.2       1 UNK         0.0000 
      3 O3          3.7777  -49.3670    7.3880 O.co2     1 UNK         0.0000 
      4 C4          1.6462  -49.0711    6.4354 C.ar      1 UNK         0.0000 
      5 C5         -0.0124  -50.6359    6.4318 C.ar      1 UNK         0.0000 
      6 C6         -0.8349  -51.7756    6.5605 C.ar      1 UNK         0.0000 
      7 C7         -2.1553  -51.7463    6.0659 C.ar      1 UNK         0.0000 
      8 C8         -2.6490  -50.5721    5.4633 C.ar      1 UNK         0.0000 
      9 C9         -1.8305  -49.4302    5.3533 C.ar      1 UNK         0.0000 
     10 C10        -0.4988  -49.4369    5.8254 C.ar      1 UNK         0.0000 
     11 C11         0.5621  -48.4620    5.8353 C.ar      1 UNK         0.0000 
     12 C12         0.4741  -47.0549    5.3074 C.3       1 UNK         0.0000 
     13 C13         0.2593  -45.9878    6.3953 C.3       1 UNK         0.0000 
     14 C14        -0.9490  -46.2558    7.3130 C.3       1 UNK         0.0000 
     15 O15        -2.1030  -46.5044    6.5056 O.3       1 UNK         0.0000 
     16 C16        -3.2262  -45.7691    6.7833 C.ar      1 UNK         0.0000 
     17 C17        -3.9083  -45.8174    8.0302 C.ar      1 UNK         0.0000 
     18 C18        -5.0388  -45.0029    8.2360 C.ar      1 UNK         0.0000 
     19 C19        -5.5258  -44.1802    7.2022 C.ar      1 UNK         0.0000 
     20 C20        -4.8795  -44.1671    5.9535 C.ar      1 UNK         0.0000 
     21 C21        -3.7380  -44.9715    5.7491 C.ar      1 UNK         0.0000 
     22 H22        -0.4485  -52.6682    7.0285 H         1 UNK         0.0000 
     23 H23        -2.7847  -52.6214    6.1499 H         1 UNK         0.0000 
     24 H24        -3.6651  -50.5448    5.0945 H         1 UNK         0.0000 
     25 H25        -2.2263  -48.5307    4.8977 H         1 UNK         0.0000 
     26 H26        -0.3446  -46.9804    4.5798 H         1 UNK         0.0000 
     27 H27         1.3764  -46.8128    4.7403 H         1 UNK         0.0000 
     28 H28         0.1490  -45.0086    5.9257 H         1 UNK         0.0000 
     29 H29         1.1532  -45.9271    7.0191 H         1 UNK         0.0000 
     30 H30        -1.0828  -45.4053    7.9823 H         1 UNK         0.0000 
     31 H31        -0.7338  -47.1268    7.9398 H         1 UNK         0.0000 
     32 H32        -3.2615  -44.9721    4.7823 H         1 UNK         0.0000 
     33 N33         1.2854  -50.3610    6.7961 N.pl3     1 UNK         0.0000 
     34 H34         1.9552  -50.9988    7.2443 H         1 UNK         0.0000 
     35 H35        -5.2563  -43.5482    5.1476 H         1 UNK         0.0000 
     36 H36        -6.4020  -43.5721    7.3503 H         1 UNK         0.0000 
     37 H37        -5.5568  -45.0126    9.1813 H         1 UNK         0.0000 
     38 F38        -2.4349  -46.1863    9.7809 F         1 UNK         0.0000 
     39 C39        -3.4514  -46.7482    9.1429 C.3       1 UNK         0.0000 
     40 F40        -4.4113  -46.9759   10.0447 F         1 UNK         0.0000 
     41 F41        -3.0629  -47.9301    8.6622 F         1 UNK         0.0000 
@<TRIPOS>BOND
     1    1    2 2    
     2    2    3 1    
     3    2    4 1    
     4    4   11 ar   
     5    4   33 ar   
     6    5    6 ar   
     7    5   10 ar   
     8    5   33 ar   
     9    6    7 ar   
    10    6   22 1    
    11    7    8 ar   
    12    7   23 1    
    13    8    9 ar   
    14    8   24 1    
    15    9   10 ar   
    16    9   25 1    
    17   10   11 ar   
    18   11   12 1    
    19   12   26 1    
    20   12   27 1    
    21   12   13 1    
    22   13   14 1    
    23   13   28 1    
    24   13   29 1    
    25   14   15 1    
    26   14   30 1    
    27   14   31 1    
    28   15   16 1    
    29   16   17 ar   
    30   16   21 ar   
    31   17   18 ar   
    32   17   39 1    
    33   18   19 ar   
    34   18   37 1    
    35   19   20 ar   
    36   19   36 1    
    37   20   21 ar   
    38   20   35 1    
    39   21   32 1    
    40   33   34 1    
    41   38   39 1    
    42   39   40 1    
    43   39   41 1    
@<TRIPOS>SUBSTRUCTURE
     1 UNK         1 GROUP             0       ****    0 ROOT    
