@<TRIPOS>MOLECULE
54
44   47    1
SMALL
USER_CHARGES


@<TRIPOS>ATOM
      1 O1          3.6008  -50.1426    7.0953 O.co2     1 UNK         0.0000 
      2 C2          2.9945  -49.0877    6.7720 C.2       1 UNK         0.0000 
      3 O3          3.5637  -47.9827    6.7380 O.co2     1 UNK         0.0000 
      4 C4          1.5546  -49.1833    6.4462 C.ar      1 UNK         0.0000 
      5 C5         -0.4163  -50.3312    6.3666 C.ar      1 UNK         0.0000 
      6 C6         -1.4599  -51.2734    6.4649 C.ar      1 UNK         0.0000 
      7 C7         -2.7720  -50.8647    6.1354 C.ar      1 UNK         0.0000 
      8 C8         -3.0153  -49.5600    5.6849 C.ar      1 UNK         0.0000 
      9 C9         -1.9719  -48.6268    5.5970 C.ar      1 UNK         0.0000 
     10 C10        -0.6362  -48.9893    5.9458 C.ar      1 UNK         0.0000 
     11 C11         0.6049  -48.2698    6.0108 C.ar      1 UNK         0.0000 
     12 C12         0.7928  -46.8042    5.7026 C.3       1 UNK         0.0000 
     13 C13         0.7659  -45.9154    6.9617 C.3       1 UNK         0.0000 
     14 C14        -0.4547  -46.1428    7.8719 C.3       1 UNK         0.0000 
     15 O15        -1.6482  -45.7967    7.1768 O.3       1 UNK         0.0000 
     16 C16        -2.8653  -46.0089    7.8013 C.ar      1 UNK         0.0000 
     17 C17        -5.3919  -46.3961    9.0422 C.ar      1 UNK         0.0000 
     18 C18        -4.2120  -46.7521    9.7091 C.ar      1 UNK         0.0000 
     19 C19        -2.9640  -46.5642    9.0973 C.ar      1 UNK         0.0000 
     20 H20        -1.2657  -52.2717    6.8071 H         1 UNK         0.0000 
     21 Cl21       -4.0633  -51.9831    6.3229 Cl        1 UNK         0.0000 
     22 H22        -4.0227  -49.2605    5.4253 H         1 UNK         0.0000 
     23 H23        -2.1803  -47.6183    5.2861 H         1 UNK         0.0000 
     24 H24        -0.0004  -46.4776    5.0287 H         1 UNK         0.0000 
     25 H25         1.7311  -46.6449    5.1622 H         1 UNK         0.0000 
     26 H26         0.8103  -44.8658    6.6678 H         1 UNK         0.0000 
     27 H27         1.6726  -46.1131    7.5350 H         1 UNK         0.0000 
     28 H28        -0.3610  -45.5323    8.7700 H         1 UNK         0.0000 
     29 H29        -0.4705  -47.1845    8.1904 H         1 UNK         0.0000 
     30 H30        -2.0870  -46.8540    9.6464 H         1 UNK         0.0000 
     31 C31        -5.3220  -45.8538    7.7419 C.ar      1 UNK         0.0000 
     32 C32        -4.0586  -45.6657    7.1236 C.ar      1 UNK         0.0000 
     33 C33        -4.0089  -45.1257    5.8153 C.ar      1 UNK         0.0000 
     34 C34        -5.1957  -44.7666    5.1494 C.ar      1 UNK         0.0000 
     35 C35        -6.4462  -44.9616    5.7683 C.ar      1 UNK         0.0000 
     36 C36        -6.5086  -45.5045    7.0675 C.ar      1 UNK         0.0000 
     37 H37        -3.0572  -44.9736    5.3238 H         1 UNK         0.0000 
     38 H38        -5.1460  -44.3459    4.1528 H         1 UNK         0.0000 
     39 H39        -7.3538  -44.6861    5.2492 H         1 UNK         0.0000 
     40 H40        -7.4693  -45.6476    7.5385 H         1 UNK         0.0000 
     41 H41        -4.2660  -47.1681   10.6999 H         1 UNK         0.0000 
     42 H42        -6.3463  -46.5386    9.5257 H         1 UNK         0.0000 
     43 N43         0.9431  -50.4141    6.6339 N.pl3     1 UNK         0.0000 
     44 H44         1.4728  -51.2281    6.9597 H         1 UNK         0.0000 
@<TRIPOS>BOND
     1    1    2 2    
     2    2    3 1    
     3    2    4 1    
     4    4   11 ar   
     5    4   43 ar   
     6    5    6 ar   
     7    5   10 ar   
     8    5   43 ar   
     9    6    7 ar   
    10    6   20 1    
    11    7    8 ar   
    12    7   21 1    
    13    8    9 ar   
    14    8   22 1    
    15    9   10 ar   
    16    9   23 1    
    17   10   11 ar   
    18   11   12 1    
    19   12   24 1    
    20   12   25 1    
    21   12   13 1    
    22   13   14 1    
    23   13   26 1    
    24   13   27 1    
    25   14   15 1    
    26   14   28 1    
    27   14   29 1    
    28   15   16 1    
    29   16   19 ar   
    30   16   32 ar   
    31   17   18 ar   
    32   17   31 ar   
    33   17   42 1    
    34   18   19 ar   
    35   18   41 1    
    36   19   30 1    
    37   31   32 ar   
    38   31   36 ar   
    39   32   33 ar   
    40   33   34 ar   
    41   33   37 1    
    42   34   35 ar   
    43   34   38 1    
    44   35   36 ar   
    45   35   39 1    
    46   36   40 1    
    47   43   44 1    
@<TRIPOS>SUBSTRUCTURE
     1 UNK         1 GROUP             0       ****    0 ROOT    
