@<TRIPOS>MOLECULE
40
49   52    1
SMALL
USER_CHARGES


@<TRIPOS>ATOM
      1 O1          4.0796  -49.9641    6.0933 O.co2     1 UNK         0.0000 
      2 C2          3.2341  -49.1036    6.4140 C.2       1 UNK         0.0000 
      3 O3          3.5646  -47.9824    6.8520 O.co2     1 UNK         0.0000 
      4 C4          1.7941  -49.4291    6.2845 C.ar      1 UNK         0.0000 
      5 C5          0.0692  -50.8734    5.8701 C.ar      1 UNK         0.0000 
      6 C6         -0.7526  -51.9804    5.5646 C.ar      1 UNK         0.0000 
      7 C7         -2.1510  -51.8509    5.6383 C.ar      1 UNK         0.0000 
      8 C8         -2.7100  -50.6161    6.0102 C.ar      1 UNK         0.0000 
      9 C9         -1.8819  -49.5164    6.3113 C.ar      1 UNK         0.0000 
     10 C10        -0.4706  -49.6138    6.2528 C.ar      1 UNK         0.0000 
     11 C11         0.6346  -48.7012    6.4799 C.ar      1 UNK         0.0000 
     12 C12         0.5503  -47.2487    6.8757 C.3       1 UNK         0.0000 
     13 C13        -0.4937  -46.4439    6.0758 C.3       1 UNK         0.0000 
     14 C14        -1.4675  -45.6591    6.9570 C.3       1 UNK         0.0000 
     15 O15        -2.0460  -46.5551    7.8997 O.3       1 UNK         0.0000 
     16 C16        -3.1695  -46.1729    8.5970 C.ar      1 UNK         0.0000 
     17 C17        -3.9070  -44.9994    8.3258 C.ar      1 UNK         0.0000 
     18 C18        -5.0862  -44.7046    9.0367 C.ar      1 UNK         0.0000 
     19 C19        -5.5323  -45.5822   10.0518 C.ar      1 UNK         0.0000 
     20 C20        -4.7880  -46.7393   10.3421 C.ar      1 UNK         0.0000 
     21 C21        -3.6196  -47.0355    9.6144 C.ar      1 UNK         0.0000 
     22 H22        -0.3074  -52.9198    5.2755 H         1 UNK         0.0000 
     23 H23        -2.7968  -52.6896    5.4151 H         1 UNK         0.0000 
     24 H24        -3.7866  -50.5028    6.0695 H         1 UNK         0.0000 
     25 H25        -2.3475  -48.5823    6.5781 H         1 UNK         0.0000 
     26 H26         1.5075  -46.7429    6.7351 H         1 UNK         0.0000 
     27 H27         0.3789  -47.1839    7.9537 H         1 UNK         0.0000 
     28 H28        -1.0773  -47.0996    5.4235 H         1 UNK         0.0000 
     29 H29         0.0194  -45.7661    5.3980 H         1 UNK         0.0000 
     30 H30        -2.2151  -45.2222    6.2970 H         1 UNK         0.0000 
     31 H31        -0.9701  -44.8474    7.4911 H         1 UNK         0.0000 
     32 H32        -3.6263  -44.3407    7.5286 H         1 UNK         0.0000 
     33 H33        -3.0603  -47.9329    9.8264 H         1 UNK         0.0000 
     34 N34         1.4413  -50.7114    5.8907 N.pl3     1 UNK         0.0000 
     35 H35         2.1511  -51.4007    5.6695 H         1 UNK         0.0000 
     36 H36        -5.1306  -47.4237   11.1122 H         1 UNK         0.0000 
     37 H37        -6.4481  -45.3764   10.5887 H         1 UNK         0.0000 
     38 O38        -5.8559  -43.6367    8.6703 O.3       1 UNK         0.0000 
     39 C39        -7.7006  -44.6618    5.0827 C.ar      1 UNK         0.0000 
     40 C40        -8.3132  -44.9852    6.3148 C.ar      1 UNK         0.0000 
     41 C41        -7.7288  -44.5868    7.5197 C.ar      1 UNK         0.0000 
     42 C42        -6.5230  -43.8614    7.5003 C.ar      1 UNK         0.0000 
     43 C43        -5.9538  -43.4664    6.2722 C.ar      1 UNK         0.0000 
     44 C44        -6.5349  -43.8779    5.0621 C.ar      1 UNK         0.0000 
     45 H45        -8.1027  -45.0222    4.1484 H         1 UNK         0.0000 
     46 H46        -9.2203  -45.5728    6.3260 H         1 UNK         0.0000 
     47 H47        -8.1689  -44.8792    8.4685 H         1 UNK         0.0000 
     48 H48        -5.0287  -42.9029    6.2496 H         1 UNK         0.0000 
     49 H49        -6.0777  -43.6154    4.1209 H         1 UNK         0.0000 
@<TRIPOS>BOND
     1    1    2 2    
     2    2    3 1    
     3    2    4 1    
     4    4   11 ar   
     5    4   34 ar   
     6    5    6 ar   
     7    5   10 ar   
     8    5   34 ar   
     9    6    7 ar   
    10    6   22 1    
    11    7    8 ar   
    12    7   23 1    
    13    8    9 ar   
    14    8   24 1    
    15    9   10 ar   
    16    9   25 1    
    17   10   11 ar   
    18   11   12 1    
    19   12   26 1    
    20   12   27 1    
    21   12   13 1    
    22   13   14 1    
    23   13   28 1    
    24   13   29 1    
    25   14   15 1    
    26   14   30 1    
    27   14   31 1    
    28   15   16 1    
    29   16   17 ar   
    30   16   21 ar   
    31   17   18 ar   
    32   17   32 1    
    33   18   19 ar   
    34   18   38 1    
    35   19   20 ar   
    36   19   37 1    
    37   20   21 ar   
    38   20   36 1    
    39   21   33 1    
    40   34   35 1    
    41   38   42 1    
    42   39   40 ar   
    43   39   44 ar   
    44   39   45 1    
    45   40   41 ar   
    46   40   46 1    
    47   41   42 ar   
    48   41   47 1    
    49   42   43 ar   
    50   43   44 ar   
    51   43   48 1    
    52   44   49 1    
@<TRIPOS>SUBSTRUCTURE
     1 UNK         1 GROUP             0       ****    0 ROOT    
