@<TRIPOS>MOLECULE
32
41   43    1
SMALL
USER_CHARGES


@<TRIPOS>ATOM
      1 O1          3.5631  -47.8126    6.2553 O.co2     1 UNK         0.0000 
      2 C2          3.0220  -48.8134    6.7746 C.2       1 UNK         0.0000 
      3 O3          3.6456  -49.5539    7.5776 O.co2     1 UNK         0.0000 
      4 C4          1.6132  -49.1482    6.4568 C.ar      1 UNK         0.0000 
      5 C5         -0.2315  -50.4988    6.6095 C.ar      1 UNK         0.0000 
      6 C6         -1.1869  -51.5016    6.8846 C.ar      1 UNK         0.0000 
      7 C7         -2.4765  -51.4084    6.3236 C.ar      1 UNK         0.0000 
      8 C8         -2.8024  -50.3149    5.4953 C.ar      1 UNK         0.0000 
      9 C9         -1.8441  -49.3159    5.2323 C.ar      1 UNK         0.0000 
     10 C10        -0.5398  -49.3743    5.7791 C.ar      1 UNK         0.0000 
     11 C11         0.6317  -48.5299    5.7107 C.ar      1 UNK         0.0000 
     12 C12         0.7399  -47.2203    4.9660 C.3       1 UNK         0.0000 
     13 C13         0.8620  -45.9947    5.8916 C.3       1 UNK         0.0000 
     14 C14        -0.3438  -45.7995    6.8144 C.3       1 UNK         0.0000 
     15 O15        -1.4784  -45.4115    6.0512 O.3       1 UNK         0.0000 
     16 C16        -2.6600  -45.1948    6.7290 C.ar      1 UNK         0.0000 
     17 C17        -2.8553  -45.5250    8.0921 C.ar      1 UNK         0.0000 
     18 C18        -4.0865  -45.2606    8.7177 C.ar      1 UNK         0.0000 
     19 C19        -5.1349  -44.6543    8.0064 C.ar      1 UNK         0.0000 
     20 C20        -4.9501  -44.3373    6.6470 C.ar      1 UNK         0.0000 
     21 C21        -3.7260  -44.6100    6.0126 C.ar      1 UNK         0.0000 
     22 H22        -0.9210  -52.3321    7.5184 H         1 UNK         0.0000 
     23 H23        -3.2056  -52.1744    6.5387 H         1 UNK         0.0000 
     24 H24        -3.7891  -50.2438    5.0714 H         1 UNK         0.0000 
     25 H25        -2.1041  -48.4784    4.5977 H         1 UNK         0.0000 
     26 H26        -0.1267  -47.0932    4.3200 H         1 UNK         0.0000 
     27 H27         1.6015  -47.2535    4.3013 H         1 UNK         0.0000 
     28 H28         1.0037  -45.1044    5.2821 H         1 UNK         0.0000 
     29 H29         1.7575  -46.0686    6.5120 H         1 UNK         0.0000 
     30 H30        -0.1118  -45.0203    7.5436 H         1 UNK         0.0000 
     31 H31        -0.5318  -46.7227    7.3641 H         1 UNK         0.0000 
     32 H32        -2.0818  -45.9790    8.6894 H         1 UNK         0.0000 
     33 H33        -3.6033  -44.3562    4.9706 H         1 UNK         0.0000 
     34 N34         1.0888  -50.3185    6.9933 N.pl3     1 UNK         0.0000 
     35 H35         1.6676  -50.9262    7.5783 H         1 UNK         0.0000 
     36 H36        -5.7468  -43.8723    6.0826 H         1 UNK         0.0000 
     37 H37        -4.2172  -45.5201    9.7567 H         1 UNK         0.0000 
     38 C38        -6.4399  -44.3423    8.7154 C.3       1 UNK         0.0000 
     39 H39        -7.1513  -43.8475    8.0470 H         1 UNK         0.0000 
     40 H40        -6.8942  -45.2648    9.0853 H         1 UNK         0.0000 
     41 H41        -6.2534  -43.6836    9.5682 H         1 UNK         0.0000 
@<TRIPOS>BOND
     1    1    2 2    
     2    2    3 1    
     3    2    4 1    
     4    4   11 ar   
     5    4   34 ar   
     6    5    6 ar   
     7    5   10 ar   
     8    5   34 ar   
     9    6    7 ar   
    10    6   22 1    
    11    7    8 ar   
    12    7   23 1    
    13    8    9 ar   
    14    8   24 1    
    15    9   10 ar   
    16    9   25 1    
    17   10   11 ar   
    18   11   12 1    
    19   12   26 1    
    20   12   27 1    
    21   12   13 1    
    22   13   14 1    
    23   13   28 1    
    24   13   29 1    
    25   14   15 1    
    26   14   30 1    
    27   14   31 1    
    28   15   16 1    
    29   16   17 ar   
    30   16   21 ar   
    31   17   18 ar   
    32   17   32 1    
    33   18   19 ar   
    34   18   37 1    
    35   19   20 ar   
    36   19   38 1    
    37   20   21 ar   
    38   20   36 1    
    39   21   33 1    
    40   34   35 1    
    41   38   39 1    
    42   38   40 1    
    43   38   41 1    
@<TRIPOS>SUBSTRUCTURE
     1 UNK         1 GROUP             0       ****    0 ROOT    
