@<TRIPOS>MOLECULE
38
48   51    1
SMALL
USER_CHARGES


@<TRIPOS>ATOM
      1 O1          3.5933  -49.9991    7.5555 O.co2     1 UNK         0.0000 
      2 C2          3.0001  -49.0713    6.9544 C.2       1 UNK         0.0000 
      3 O3          3.5624  -47.9815    6.7110 O.co2     1 UNK         0.0000 
      4 C4          1.5917  -49.2744    6.5446 C.ar      1 UNK         0.0000 
      5 C5         -0.3051  -50.5537    6.4875 C.ar      1 UNK         0.0000 
      6 C6         -1.2894  -51.5592    6.6189 C.ar      1 UNK         0.0000 
      7 C7         -2.5514  -51.3707    6.0210 C.ar      1 UNK         0.0000 
      8 C8         -2.8162  -50.1743    5.3187 C.ar      1 UNK         0.0000 
      9 C9         -1.8241  -49.1776    5.2080 C.ar      1 UNK         0.0000 
     10 C10        -0.5385  -49.3399    5.7780 C.ar      1 UNK         0.0000 
     11 C11         0.6726  -48.5474    5.8120 C.ar      1 UNK         0.0000 
     12 C12         0.9017  -47.2144    5.1306 C.3       1 UNK         0.0000 
     13 C13         0.4907  -45.9835    5.9602 C.3       1 UNK         0.0000 
     14 C14        -1.0329  -45.8412    6.1442 C.3       1 UNK         0.0000 
     15 O15        -1.4399  -46.5418    7.3177 O.3       1 UNK         0.0000 
     16 C16        -2.6980  -46.2729    7.8035 C.ar      1 UNK         0.0000 
     17 C17        -3.7548  -45.7256    7.0283 C.ar      1 UNK         0.0000 
     18 C18        -5.0251  -45.4767    7.6009 C.ar      1 UNK         0.0000 
     19 C19        -5.2110  -45.7620    8.9755 C.ar      1 UNK         0.0000 
     20 C20        -4.1688  -46.3092    9.7409 C.ar      1 UNK         0.0000 
     21 C21        -2.9221  -46.5642    9.1578 C.ar      1 UNK         0.0000 
     22 H22        -1.0643  -52.4685    7.1557 H         1 UNK         0.0000 
     23 H23        -3.3107  -52.1386    6.1032 H         1 UNK         0.0000 
     24 H24        -3.7870  -50.0270    4.8621 H         1 UNK         0.0000 
     25 H25        -2.0525  -48.2620    4.6806 H         1 UNK         0.0000 
     26 H26         0.3591  -47.1826    4.1860 H         1 UNK         0.0000 
     27 H27         1.9571  -47.1197    4.8545 H         1 UNK         0.0000 
     28 H28         0.8383  -45.1152    5.4100 H         1 UNK         0.0000 
     29 H29         1.0193  -45.9535    6.9119 H         1 UNK         0.0000 
     30 H30        -1.5694  -46.2175    5.2579 H         1 UNK         0.0000 
     31 H31        -1.2608  -44.7804    6.2555 H         1 UNK         0.0000 
     32 H32        -3.6128  -45.5208    5.9804 H         1 UNK         0.0000 
     33 H33        -2.1258  -46.9747    9.7432 H         1 UNK         0.0000 
     34 N34         1.0006  -50.4682    6.9462 N.pl3     1 UNK         0.0000 
     35 H35         1.5289  -51.1452    7.4978 H         1 UNK         0.0000 
     36 H36        -4.3285  -46.5246   10.7852 H         1 UNK         0.0000 
     37 H37        -6.1596  -45.5763    9.4591 H         1 UNK         0.0000 
     38 C38        -8.2961  -43.9825    5.1869 C.ar      1 UNK         0.0000 
     39 C39        -6.9685  -43.6324    4.8677 C.ar      1 UNK         0.0000 
     40 C40        -5.9075  -44.1038    5.6742 C.ar      1 UNK         0.0000 
     41 C41        -6.1471  -44.9439    6.7916 C.ar      1 UNK         0.0000 
     42 C42        -7.4945  -45.2646    7.0984 C.ar      1 UNK         0.0000 
     43 C43        -8.5569  -44.7797    6.3153 C.ar      1 UNK         0.0000 
     44 H44        -9.1038  -43.6280    4.5606 H         1 UNK         0.0000 
     45 H45        -6.7448  -43.0106    4.0128 H         1 UNK         0.0000 
     46 H46        -4.8944  -43.8110    5.4066 H         1 UNK         0.0000 
     47 H47        -7.7356  -45.9131    7.9203 H         1 UNK         0.0000 
     48 H48        -9.5750  -45.0472    6.5536 H         1 UNK         0.0000 
@<TRIPOS>BOND
     1    1    2 2    
     2    2    3 1    
     3    2    4 1    
     4    4   11 ar   
     5    4   34 ar   
     6    5    6 ar   
     7    5   10 ar   
     8    5   34 ar   
     9    6    7 ar   
    10    6   22 1    
    11    7    8 ar   
    12    7   23 1    
    13    8    9 ar   
    14    8   24 1    
    15    9   10 ar   
    16    9   25 1    
    17   10   11 ar   
    18   11   12 1    
    19   12   26 1    
    20   12   27 1    
    21   12   13 1    
    22   13   14 1    
    23   13   28 1    
    24   13   29 1    
    25   14   15 1    
    26   14   30 1    
    27   14   31 1    
    28   15   16 1    
    29   16   17 ar   
    30   16   21 ar   
    31   17   18 ar   
    32   17   32 1    
    33   18   19 ar   
    34   18   41 1    
    35   19   20 ar   
    36   19   37 1    
    37   20   21 ar   
    38   20   36 1    
    39   21   33 1    
    40   34   35 1    
    41   38   39 ar   
    42   38   43 ar   
    43   38   44 1    
    44   39   40 ar   
    45   39   45 1    
    46   40   41 ar   
    47   40   46 1    
    48   41   42 ar   
    49   42   43 ar   
    50   42   47 1    
    51   43   48 1    
@<TRIPOS>SUBSTRUCTURE
     1 UNK         1 GROUP             0       ****    0 ROOT    
