@<TRIPOS>MOLECULE
30
41   43    1
SMALL
USER_CHARGES


@<TRIPOS>ATOM
      1 O1          3.7086  -50.0138    7.0134 O.co2     1 UNK         0.0000 
      2 C2          3.0488  -49.0009    6.6642 C.2       1 UNK         0.0000 
      3 O3          3.5629  -47.8679    6.6025 O.co2     1 UNK         0.0000 
      4 C4          1.6061  -49.1679    6.3503 C.ar      1 UNK         0.0000 
      5 C5         -0.3127  -50.3896    6.2492 C.ar      1 UNK         0.0000 
      6 C6         -1.3056  -51.3826    6.3084 C.ar      1 UNK         0.0000 
      7 C7         -2.6361  -51.0463    5.9759 C.ar      1 UNK         0.0000 
      8 C8         -2.9446  -49.7367    5.5736 C.ar      1 UNK         0.0000 
      9 C9         -1.9388  -48.7516    5.5050 C.ar      1 UNK         0.0000 
     10 C10        -0.5911  -49.0537    5.8486 C.ar      1 UNK         0.0000 
     11 C11         0.6353  -48.2926    5.9041 C.ar      1 UNK         0.0000 
     12 C12         0.8089  -46.8342    5.5612 C.3       1 UNK         0.0000 
     13 C13         0.8737  -45.9328    6.8109 C.3       1 UNK         0.0000 
     14 C14        -0.4305  -45.9192    7.6156 C.3       1 UNK         0.0000 
     15 O15        -1.3927  -45.1905    6.8684 O.3       1 UNK         0.0000 
     16 C16        -2.6929  -45.1866    7.3131 C.ar      1 UNK         0.0000 
     17 C17        -3.1490  -45.8766    8.4660 C.ar      1 UNK         0.0000 
     18 C18        -4.5087  -45.8424    8.8313 C.ar      1 UNK         0.0000 
     19 C19        -5.4211  -45.0930    8.0629 C.ar      1 UNK         0.0000 
     20 C20        -4.9781  -44.3962    6.9226 C.ar      1 UNK         0.0000 
     21 C21        -3.6217  -44.4510    6.5497 C.ar      1 UNK         0.0000 
     22 H22        -1.0551  -52.3834    6.6110 H         1 UNK         0.0000 
     23 H23        -3.4056  -51.7983    6.0255 H         1 UNK         0.0000 
     24 H24        -3.9643  -49.4862    5.3115 H         1 UNK         0.0000 
     25 H25        -2.1991  -47.7505    5.1961 H         1 UNK         0.0000 
     26 H26         0.0010  -46.5000    4.9071 H         1 UNK         0.0000 
     27 H27         1.7256  -46.6956    4.9795 H         1 UNK         0.0000 
     28 H28         1.1203  -44.9133    6.5123 H         1 UNK         0.0000 
     29 H29         1.6903  -46.2673    7.4466 H         1 UNK         0.0000 
     30 H30        -0.2709  -45.4377    8.5803 H         1 UNK         0.0000 
     31 H31        -0.7619  -46.9401    7.8074 H         1 UNK         0.0000 
     32 H32        -2.4734  -46.4519    9.0781 H         1 UNK         0.0000 
     33 H33        -3.2874  -43.9302    5.6654 H         1 UNK         0.0000 
     34 N34         1.0444  -50.4156    6.5272 N.pl3     1 UNK         0.0000 
     35 H35         1.6065  -51.2074    6.8324 H         1 UNK         0.0000 
     36 H36        -5.6766  -43.8255    6.3274 H         1 UNK         0.0000 
     37 H37        -6.4649  -45.0576    8.3356 H         1 UNK         0.0000 
     38 C38        -4.9806  -46.6345   10.0352 C.3       1 UNK         0.0000 
     39 H39        -6.0496  -46.4952   10.2062 H         1 UNK         0.0000 
     40 H40        -4.7949  -47.6981    9.8697 H         1 UNK         0.0000 
     41 H41        -4.4404  -46.3264   10.9326 H         1 UNK         0.0000 
@<TRIPOS>BOND
     1    1    2 2    
     2    2    3 1    
     3    2    4 1    
     4    4   11 ar   
     5    4   34 ar   
     6    5    6 ar   
     7    5   10 ar   
     8    5   34 ar   
     9    6    7 ar   
    10    6   22 1    
    11    7    8 ar   
    12    7   23 1    
    13    8    9 ar   
    14    8   24 1    
    15    9   10 ar   
    16    9   25 1    
    17   10   11 ar   
    18   11   12 1    
    19   12   26 1    
    20   12   27 1    
    21   12   13 1    
    22   13   14 1    
    23   13   28 1    
    24   13   29 1    
    25   14   15 1    
    26   14   30 1    
    27   14   31 1    
    28   15   16 1    
    29   16   17 ar   
    30   16   21 ar   
    31   17   18 ar   
    32   17   32 1    
    33   18   19 ar   
    34   18   38 1    
    35   19   20 ar   
    36   19   37 1    
    37   20   21 ar   
    38   20   36 1    
    39   21   33 1    
    40   34   35 1    
    41   38   39 1    
    42   38   40 1    
    43   38   41 1    
@<TRIPOS>SUBSTRUCTURE
     1 UNK         1 GROUP             0       ****    0 ROOT    
