@<TRIPOS>MOLECULE
42
44   47    1
SMALL
USER_CHARGES


@<TRIPOS>ATOM
      1 O1          3.6010  -50.1309    7.2173 O.co2     1 UNK         0.0000 
      2 C2          2.9795  -49.0944    6.8829 C.2       1 UNK         0.0000 
      3 O3          3.5582  -47.9830    6.8122 O.co2     1 UNK         0.0000 
      4 C4          1.5366  -49.2034    6.5537 C.ar      1 UNK         0.0000 
      5 C5         -0.3472  -50.4577    6.2991 C.ar      1 UNK         0.0000 
      6 C6         -1.3179  -51.4749    6.2331 C.ar      1 UNK         0.0000 
      7 C7         -2.6289  -51.1468    5.8278 C.ar      1 UNK         0.0000 
      8 C8         -2.9455  -49.8148    5.4839 C.ar      1 UNK         0.0000 
      9 C9         -1.9618  -48.8114    5.5555 C.ar      1 UNK         0.0000 
     10 C10        -0.6358  -49.1065    5.9640 C.ar      1 UNK         0.0000 
     11 C11         0.5554  -48.3244    6.1538 C.ar      1 UNK         0.0000 
     12 C12         0.6833  -46.8447    5.9557 C.3       1 UNK         0.0000 
     13 C13         0.6911  -46.0461    7.2731 C.3       1 UNK         0.0000 
     14 C14        -0.5530  -46.2446    8.1393 C.3       1 UNK         0.0000 
     15 O15        -1.6886  -45.7642    7.4384 O.3       1 UNK         0.0000 
     16 C16        -2.9365  -45.9351    8.0039 C.ar      1 UNK         0.0000 
     17 C17        -5.5641  -46.2439    9.0369 C.ar      1 UNK         0.0000 
     18 C18        -4.4526  -46.6108    9.8135 C.ar      1 UNK         0.0000 
     19 C19        -3.1512  -46.4560    9.3053 C.ar      1 UNK         0.0000 
     20 H20        -1.0725  -52.4891    6.4965 H         1 UNK         0.0000 
     21 H21        -3.4006  -51.9114    5.7850 H         1 UNK         0.0000 
     22 H22        -3.9567  -49.5554    5.1726 H         1 UNK         0.0000 
     23 H23        -2.2180  -47.7978    5.2884 H         1 UNK         0.0000 
     24 H24        -0.1373  -46.4896    5.3358 H         1 UNK         0.0000 
     25 H25         1.5901  -46.6136    5.3924 H         1 UNK         0.0000 
     26 H26         0.8003  -44.9837    7.0497 H         1 UNK         0.0000 
     27 H27         1.5657  -46.3279    7.8552 H         1 UNK         0.0000 
     28 H28        -0.4371  -45.6845    9.0679 H         1 UNK         0.0000 
     29 H29        -0.6725  -47.3005    8.3938 H         1 UNK         0.0000 
     30 H30        -2.3433  -46.7548    9.9541 H         1 UNK         0.0000 
     31 C31        -5.3751  -45.7201    7.7432 C.ar      1 UNK         0.0000 
     32 C32        -4.0606  -45.5636    7.2263 C.ar      1 UNK         0.0000 
     33 C33        -3.8918  -45.0359    5.9226 C.ar      1 UNK         0.0000 
     34 C34        -5.0075  -44.6755    5.1465 C.ar      1 UNK         0.0000 
     35 C35        -6.3050  -44.8355    5.6606 C.ar      1 UNK         0.0000 
     36 C36        -6.4926  -45.3504    6.9558 C.ar      1 UNK         0.0000 
     37 H37        -2.9091  -44.8987    5.5003 H         1 UNK         0.0000 
     38 H38        -4.8459  -44.2745    4.1548 H         1 UNK         0.0000 
     39 H39        -7.1620  -44.5617    5.0630 H         1 UNK         0.0000 
     40 H40        -7.4912  -45.4674    7.3450 H         1 UNK         0.0000 
     41 H41        -4.5861  -47.0164   10.8082 H         1 UNK         0.0000 
     42 H42        -6.5536  -46.3721    9.4430 H         1 UNK         0.0000 
     43 N43         0.9870  -50.4703    6.6481 N.pl3     1 UNK         0.0000 
     44 H44         1.5565  -51.2517    6.9442 H         1 UNK         0.0000 
@<TRIPOS>BOND
     1    1    2 2    
     2    2    3 1    
     3    2    4 1    
     4    4   11 ar   
     5    4   43 ar   
     6    5    6 ar   
     7    5   10 ar   
     8    5   43 ar   
     9    6    7 ar   
    10    6   20 1    
    11    7    8 ar   
    12    7   21 1    
    13    8    9 ar   
    14    8   22 1    
    15    9   10 ar   
    16    9   23 1    
    17   10   11 ar   
    18   11   12 1    
    19   12   24 1    
    20   12   25 1    
    21   12   13 1    
    22   13   14 1    
    23   13   26 1    
    24   13   27 1    
    25   14   15 1    
    26   14   28 1    
    27   14   29 1    
    28   15   16 1    
    29   16   19 ar   
    30   16   32 ar   
    31   17   18 ar   
    32   17   31 ar   
    33   17   42 1    
    34   18   19 ar   
    35   18   41 1    
    36   19   30 1    
    37   31   32 ar   
    38   31   36 ar   
    39   32   33 ar   
    40   33   34 ar   
    41   33   37 1    
    42   34   35 ar   
    43   34   38 1    
    44   35   36 ar   
    45   35   39 1    
    46   36   40 1    
    47   43   44 1    
@<TRIPOS>SUBSTRUCTURE
     1 UNK         1 GROUP             0       ****    0 ROOT    
