@<TRIPOS>MOLECULE
60
43   45    1
SMALL
USER_CHARGES


@<TRIPOS>ATOM
      1 O1          3.9650  -49.5043    7.2172 O.co2     1 UNK         0.0000 
      2 C2          3.1647  -48.6934    6.6860 C.2       1 UNK         0.0000 
      3 O3          3.5469  -47.5550    6.3203 O.co2     1 UNK         0.0000 
      4 C4          1.7422  -49.1031    6.4894 C.2       1 UNK         0.0000 
      5 S5          1.3189  -50.6778    7.1278 S.3       1 UNK         0.0000 
      6 C6         -0.3298  -50.5386    6.5641 C.ar      1 UNK         0.0000 
      7 C7         -1.3498  -51.5036    6.6886 C.ar      1 UNK         0.0000 
      8 C8         -2.6263  -51.2396    6.1671 C.ar      1 UNK         0.0000 
      9 C9         -2.8774  -50.0178    5.5363 C.ar      1 UNK         0.0000 
     10 C10        -1.8563  -49.0471    5.4330 C.ar      1 UNK         0.0000 
     11 C11        -0.5461  -49.2759    5.9301 C.ar      1 UNK         0.0000 
     12 C12         0.6515  -48.4545    5.9075 C.2       1 UNK         0.0000 
     13 C13         0.6868  -47.0728    5.3244 C.3       1 UNK         0.0000 
     14 C14         0.5835  -45.9866    6.4079 C.3       1 UNK         0.0000 
     15 C15        -0.7243  -46.0605    7.2196 C.3       1 UNK         0.0000 
     16 O16        -1.8113  -45.6523    6.3994 O.3       1 UNK         0.0000 
     17 C17        -3.0550  -45.5539    6.9867 C.ar      1 UNK         0.0000 
     18 C18        -3.3644  -46.1029    8.2530 C.ar      1 UNK         0.0000 
     19 C19        -4.6428  -45.9429    8.8135 C.ar      1 UNK         0.0000 
     20 C20        -4.9320  -46.5613   10.1729 C.3       1 UNK         0.0000 
     21 C21        -5.6327  -45.2134    8.1178 C.ar      1 UNK         0.0000 
     22 Cl22       -7.1917  -44.9681    8.8275 Cl        1 UNK         0.0000 
     23 C23        -5.3388  -44.6781    6.8441 C.ar      1 UNK         0.0000 
     24 C24        -6.3832  -43.8851    6.0760 C.3       1 UNK         0.0000 
     25 C25        -4.0597  -44.8664    6.2827 C.ar      1 UNK         0.0000 
     26 H26        -1.1424  -52.4466    7.1745 H         1 UNK         0.0000 
     27 H27        -3.4063  -51.9819    6.2486 H         1 UNK         0.0000 
     28 H28        -3.8514  -49.8125    5.1274 H         1 UNK         0.0000 
     29 H29        -2.0736  -48.1199    4.9316 H         1 UNK         0.0000 
     30 H30        -0.1280  -46.9348    4.6049 H         1 UNK         0.0000 
     31 H31         1.5994  -46.9269    4.7493 H         1 UNK         0.0000 
     32 H32         0.6858  -44.9928    5.9616 H         1 UNK         0.0000 
     33 H33         1.4224  -46.0973    7.0973 H         1 UNK         0.0000 
     34 H34        -0.6429  -45.3940    8.0846 H         1 UNK         0.0000 
     35 H35        -0.8680  -47.0856    7.5733 H         1 UNK         0.0000 
     36 H36        -2.6280  -46.6551    8.8154 H         1 UNK         0.0000 
     37 H37        -5.3736  -45.8282   10.8491 H         1 UNK         0.0000 
     38 H38        -5.6216  -47.4013   10.0689 H         1 UNK         0.0000 
     39 H39        -4.0182  -46.9333   10.6390 H         1 UNK         0.0000 
     40 H40        -5.9783  -43.4834    5.1451 H         1 UNK         0.0000 
     41 H41        -7.2409  -44.5132    5.8279 H         1 UNK         0.0000 
     42 H42        -6.7338  -43.0439    6.6758 H         1 UNK         0.0000 
     43 H43        -3.8301  -44.4518    5.3108 H         1 UNK         0.0000 
@<TRIPOS>BOND
     1    1    2 2    
     2    2    3 1    
     3    2    4 1    
     4    4    5 1    
     5    4   12 2    
     6    5    6 1    
     7    6    7 ar   
     8    6   11 ar   
     9    7    8 ar   
    10    7   26 1    
    11    8    9 ar   
    12    8   27 1    
    13    9   10 ar   
    14    9   28 1    
    15   10   11 ar   
    16   10   29 1    
    17   11   12 1    
    18   12   13 1    
    19   13   30 1    
    20   13   31 1    
    21   13   14 1    
    22   14   15 1    
    23   14   32 1    
    24   14   33 1    
    25   15   16 1    
    26   15   34 1    
    27   15   35 1    
    28   16   17 1    
    29   17   18 ar   
    30   17   25 ar   
    31   18   19 ar   
    32   18   36 1    
    33   19   20 1    
    34   19   21 ar   
    35   20   37 1    
    36   20   38 1    
    37   20   39 1    
    38   21   22 1    
    39   21   23 ar   
    40   23   24 1    
    41   23   25 ar   
    42   24   40 1    
    43   24   41 1    
    44   24   42 1    
    45   25   43 1    
@<TRIPOS>SUBSTRUCTURE
     1 UNK         1 GROUP             0       ****    0 ROOT    
