@<TRIPOS>MOLECULE
34
41   43    1
SMALL
USER_CHARGES


@<TRIPOS>ATOM
      1 O1          3.8542  -50.1657    7.1652 O.co2     1 UNK         0.0000 
      2 C2          3.1289  -49.1923    6.8519 C.2       1 UNK         0.0000 
      3 O3          3.5613  -48.0246    6.8255 O.co2     1 UNK         0.0000 
      4 C4          1.7066  -49.4720    6.5208 C.ar      1 UNK         0.0000 
      5 C5         -0.0964  -50.8628    6.3290 C.ar      1 UNK         0.0000 
      6 C6         -1.0022  -51.9381    6.3224 C.ar      1 UNK         0.0000 
      7 C7         -2.3608  -51.6992    5.9962 C.ar      1 UNK         0.0000 
      8 C8         -2.7795  -50.3974    5.6675 C.ar      1 UNK         0.0000 
      9 C9         -1.8647  -49.3287    5.6661 C.ar      1 UNK         0.0000 
     10 C10        -0.4959  -49.5353    6.0071 C.ar      1 UNK         0.0000 
     11 C11         0.6533  -48.6750    6.1162 C.ar      1 UNK         0.0000 
     12 C12         0.6653  -47.2011    5.8557 C.3       1 UNK         0.0000 
     13 C13         0.2404  -46.4057    7.0971 C.3       1 UNK         0.0000 
     14 C14        -0.3171  -45.0238    6.7322 C.3       1 UNK         0.0000 
     15 O15        -1.5243  -45.1759    5.9865 O.3       1 UNK         0.0000 
     16 C16        -2.7274  -45.1910    6.6616 C.ar      1 UNK         0.0000 
     17 C17        -2.8647  -45.3931    8.0557 C.ar      1 UNK         0.0000 
     18 C18        -4.1364  -45.3621    8.6632 C.ar      1 UNK         0.0000 
     19 C19        -5.2914  -45.1174    7.8895 C.ar      1 UNK         0.0000 
     20 C20        -5.1599  -44.9490    6.4967 C.ar      1 UNK         0.0000 
     21 C21        -3.8904  -44.9919    5.8885 C.ar      1 UNK         0.0000 
     22 H22        -0.6669  -52.9299    6.5668 H         1 UNK         0.0000 
     23 H23        -3.0649  -52.5176    5.9992 H         1 UNK         0.0000 
     24 H24        -3.8207  -50.2190    5.4109 H         1 UNK         0.0000 
     25 H25        -2.2076  -48.3361    5.4103 H         1 UNK         0.0000 
     26 H26        -0.0009  -46.9824    5.0179 H         1 UNK         0.0000 
     27 H27         1.6525  -46.8644    5.5315 H         1 UNK         0.0000 
     28 H28         1.0842  -46.3136    7.7804 H         1 UNK         0.0000 
     29 H29        -0.5256  -46.9611    7.6395 H         1 UNK         0.0000 
     30 H30         0.4056  -44.4957    6.1065 H         1 UNK         0.0000 
     31 H31        -0.4475  -44.4035    7.6182 H         1 UNK         0.0000 
     32 H32        -2.0036  -45.5774    8.6831 H         1 UNK         0.0000 
     33 H33        -3.8070  -44.8518    4.8205 H         1 UNK         0.0000 
     34 N34         1.2567  -50.7778    6.6179 N.pl3     1 UNK         0.0000 
     35 H35         1.8853  -51.5328    6.8799 H         1 UNK         0.0000 
     36 H36        -6.0378  -44.7693    5.8959 H         1 UNK         0.0000 
     37 H37        -4.2092  -45.5129    9.7298 H         1 UNK         0.0000 
     38 C38        -6.6672  -45.0309    8.5319 C.3       1 UNK         0.0000 
     39 F39        -7.4786  -45.9218    7.9588 F         1 UNK         0.0000 
     40 F40        -6.6158  -45.2723    9.8435 F         1 UNK         0.0000 
     41 F41        -7.1584  -43.8055    8.3407 F         1 UNK         0.0000 
@<TRIPOS>BOND
     1    1    2 2    
     2    2    3 1    
     3    2    4 1    
     4    4   11 ar   
     5    4   34 ar   
     6    5    6 ar   
     7    5   10 ar   
     8    5   34 ar   
     9    6    7 ar   
    10    6   22 1    
    11    7    8 ar   
    12    7   23 1    
    13    8    9 ar   
    14    8   24 1    
    15    9   10 ar   
    16    9   25 1    
    17   10   11 ar   
    18   11   12 1    
    19   12   26 1    
    20   12   27 1    
    21   12   13 1    
    22   13   14 1    
    23   13   28 1    
    24   13   29 1    
    25   14   15 1    
    26   14   30 1    
    27   14   31 1    
    28   15   16 1    
    29   16   17 ar   
    30   16   21 ar   
    31   17   18 ar   
    32   17   32 1    
    33   18   19 ar   
    34   18   37 1    
    35   19   20 ar   
    36   19   38 1    
    37   20   21 ar   
    38   20   36 1    
    39   21   33 1    
    40   34   35 1    
    41   38   39 1    
    42   38   40 1    
    43   38   41 1    
@<TRIPOS>SUBSTRUCTURE
     1 UNK         1 GROUP             0       ****    0 ROOT    
