@<TRIPOS>MOLECULE
48
42   45    1
SMALL
USER_CHARGES


@<TRIPOS>ATOM
      1 O1          3.5962  -50.2382    7.2860 O.co2     1 UNK         0.0000 
      2 C2          2.9915  -49.1832    6.9785 C.2       1 UNK         0.0000 
      3 O3          3.5468  -48.0563    6.9856 O.co2     1 UNK         0.0000 
      4 C4          1.5667  -49.2814    6.6034 C.ar      1 UNK         0.0000 
      5 C5         -0.3493  -50.4961    6.2933 C.ar      1 UNK         0.0000 
      6 C6         -1.3483  -51.4866    6.2008 C.ar      1 UNK         0.0000 
      7 C7         -2.6508  -51.1171    5.7985 C.ar      1 UNK         0.0000 
      8 C8         -2.9320  -49.7715    5.4886 C.ar      1 UNK         0.0000 
      9 C9         -1.9224  -48.7928    5.5781 C.ar      1 UNK         0.0000 
     10 C10        -0.6057  -49.1301    5.9783 C.ar      1 UNK         0.0000 
     11 C11         0.6128  -48.3833    6.1734 C.ar      1 UNK         0.0000 
     12 C12         0.8068  -46.9172    5.9622 C.3       1 UNK         0.0000 
     13 C13         0.7034  -46.1229    7.2813 C.3       1 UNK         0.0000 
     14 C14        -0.7224  -46.0877    7.8568 C.3       1 UNK         0.0000 
     15 O15        -1.5391  -45.3745    6.9378 O.3       1 UNK         0.0000 
     16 C16        -2.8810  -45.1822    7.1989 C.ar      1 UNK         0.0000 
     17 C17        -5.6349  -44.5517    7.4221 C.ar      1 UNK         0.0000 
     18 C18        -4.8882  -44.0528    6.3462 C.ar      1 UNK         0.0000 
     19 C19        -3.5272  -44.3675    6.2431 C.ar      1 UNK         0.0000 
     20 H20        -1.1221  -52.5127    6.4406 H         1 UNK         0.0000 
     21 H21        -3.4286  -51.8679    5.7409 H         1 UNK         0.0000 
     22 H22        -3.9393  -49.4941    5.1917 H         1 UNK         0.0000 
     23 H23        -2.1655  -47.7639    5.3407 H         1 UNK         0.0000 
     24 H24         0.0812  -46.5361    5.2444 H         1 UNK         0.0000 
     25 H25         1.7755  -46.7461    5.5008 H         1 UNK         0.0000 
     26 H26         1.0481  -45.1065    7.1031 H         1 UNK         0.0000 
     27 H27         1.3929  -46.5497    8.0104 H         1 UNK         0.0000 
     28 H28        -0.7254  -45.5871    8.8270 H         1 UNK         0.0000 
     29 H29        -1.0854  -47.1044    7.9921 H         1 UNK         0.0000 
     30 H30        -2.9494  -43.9742    5.4116 H         1 UNK         0.0000 
     31 H31        -5.3617  -43.4242    5.5988 H         1 UNK         0.0000 
     32 H32        -6.6821  -44.3169    7.5187 H         1 UNK         0.0000 
     33 N33         0.9807  -50.5349    6.6696 N.pl3     1 UNK         0.0000 
     34 H34         1.5294  -51.3275    6.9752 H         1 UNK         0.0000 
     35 C35        -4.5301  -46.7432   10.1164 C.ar      1 UNK         0.0000 
     36 N36        -5.5194  -46.0063    9.4887 N.pl3     1 UNK         0.0000 
     37 C37        -5.0107  -45.3807    8.3736 C.ar      1 UNK         0.0000 
     38 C38        -3.6231  -45.7297    8.3012 C.ar      1 UNK         0.0000 
     39 C39        -3.3547  -46.5895    9.4315 C.ar      1 UNK         0.0000 
     40 H40        -6.4801  -45.9639    9.8176 H         1 UNK         0.0000 
     41 H41        -2.4128  -47.0461    9.6996 H         1 UNK         0.0000 
     42 H42        -4.7507  -47.3116   11.0075 H         1 UNK         0.0000 
@<TRIPOS>BOND
     1    1    2 2    
     2    2    3 1    
     3    2    4 1    
     4    4   11 ar   
     5    4   33 ar   
     6    5    6 ar   
     7    5   10 ar   
     8    5   33 ar   
     9    6    7 ar   
    10    6   20 1    
    11    7    8 ar   
    12    7   21 1    
    13    8    9 ar   
    14    8   22 1    
    15    9   10 ar   
    16    9   23 1    
    17   10   11 ar   
    18   11   12 1    
    19   12   24 1    
    20   12   25 1    
    21   12   13 1    
    22   13   14 1    
    23   13   26 1    
    24   13   27 1    
    25   14   15 1    
    26   14   28 1    
    27   14   29 1    
    28   15   16 1    
    29   16   19 ar   
    30   16   38 ar   
    31   17   18 ar   
    32   17   32 1    
    33   17   37 ar   
    34   18   19 ar   
    35   18   31 1    
    36   19   30 1    
    37   33   34 1    
    38   35   36 ar   
    39   35   39 ar   
    40   35   42 1    
    41   36   37 ar   
    42   36   40 1    
    43   37   38 ar   
    44   38   39 ar   
    45   39   41 1    
@<TRIPOS>SUBSTRUCTURE
     1 UNK         1 GROUP             0       ****    0 ROOT    
