@<TRIPOS>MOLECULE
27
38   40    1
SMALL
USER_CHARGES


@<TRIPOS>ATOM
      1 O1          3.5620  -47.7655    6.2857 O.co2     1 UNK         0.0000 
      2 C2          3.0106  -48.7677    6.7913 C.2       1 UNK         0.0000 
      3 O3          3.6267  -49.5212    7.5837 O.co2     1 UNK         0.0000 
      4 C4          1.5987  -49.0922    6.4610 C.ar      1 UNK         0.0000 
      5 C5         -0.2460  -50.4444    6.5734 C.ar      1 UNK         0.0000 
      6 C6         -1.2006  -51.4538    6.8287 C.ar      1 UNK         0.0000 
      7 C7         -2.4848  -51.3550    6.2582 C.ar      1 UNK         0.0000 
      8 C8         -2.8075  -50.2415    5.4534 C.ar      1 UNK         0.0000 
      9 C9         -1.8538  -49.2332    5.2139 C.ar      1 UNK         0.0000 
     10 C10        -0.5510  -49.3043    5.7662 C.ar      1 UNK         0.0000 
     11 C11         0.6244  -48.4626    5.7171 C.ar      1 UNK         0.0000 
     12 C12         0.7436  -47.1491    4.9892 C.3       1 UNK         0.0000 
     13 C13         0.8629  -45.9369    5.9353 C.3       1 UNK         0.0000 
     14 C14        -0.3435  -45.7461    6.8598 C.3       1 UNK         0.0000 
     15 O15        -1.4738  -45.3700    6.0783 O.3       1 UNK         0.0000 
     16 C16        -2.6659  -45.1791    6.7323 C.ar      1 UNK         0.0000 
     17 C17        -2.8936  -45.5089    8.0957 C.ar      1 UNK         0.0000 
     18 C18        -4.1486  -45.2841    8.6877 C.ar      1 UNK         0.0000 
     19 C19        -5.1945  -44.7219    7.9306 C.ar      1 UNK         0.0000 
     20 C20        -4.9832  -44.3904    6.5801 C.ar      1 UNK         0.0000 
     21 C21        -3.7285  -44.6254    5.9884 C.ar      1 UNK         0.0000 
     22 H22        -0.9288  -52.3015    7.4431 H         1 UNK         0.0000 
     23 H23        -3.2130  -52.1247    6.4483 H         1 UNK         0.0000 
     24 H24        -3.7943  -50.1701    5.0203 H         1 UNK         0.0000 
     25 H25        -2.1170  -48.3840    4.5924 H         1 UNK         0.0000 
     26 H26        -0.1082  -47.0091    4.3235 H         1 UNK         0.0000 
     27 H27         1.6134  -47.1680    4.3352 H         1 UNK         0.0000 
     28 H28         1.0219  -45.0317    5.3513 H         1 UNK         0.0000 
     29 H29         1.7514  -46.0358    6.5559 H         1 UNK         0.0000 
     30 H30        -0.1280  -44.9553    7.5803 H         1 UNK         0.0000 
     31 H31        -0.5288  -46.6684    7.4145 H         1 UNK         0.0000 
     32 H32        -2.1221  -45.9412    8.7152 H         1 UNK         0.0000 
     33 H33        -3.5750  -44.3709    4.9495 H         1 UNK         0.0000 
     34 N34         1.0676  -50.2717    6.9802 N.pl3     1 UNK         0.0000 
     35 H35         1.6380  -50.8971    7.5486 H         1 UNK         0.0000 
     36 H36        -5.7824  -43.9588    5.9956 H         1 UNK         0.0000 
     37 H37        -6.1592  -44.5447    8.3870 H         1 UNK         0.0000 
     38 H38        -4.3155  -45.5485    9.7199 H         1 UNK         0.0000 
@<TRIPOS>BOND
     1    1    2 2    
     2    2    3 1    
     3    2    4 1    
     4    4   11 ar   
     5    4   34 ar   
     6    5    6 ar   
     7    5   10 ar   
     8    5   34 ar   
     9    6    7 ar   
    10    6   22 1    
    11    7    8 ar   
    12    7   23 1    
    13    8    9 ar   
    14    8   24 1    
    15    9   10 ar   
    16    9   25 1    
    17   10   11 ar   
    18   11   12 1    
    19   12   26 1    
    20   12   27 1    
    21   12   13 1    
    22   13   14 1    
    23   13   28 1    
    24   13   29 1    
    25   14   15 1    
    26   14   30 1    
    27   14   31 1    
    28   15   16 1    
    29   16   17 ar   
    30   16   21 ar   
    31   17   18 ar   
    32   17   32 1    
    33   18   19 ar   
    34   18   38 1    
    35   19   20 ar   
    36   19   37 1    
    37   20   21 ar   
    38   20   36 1    
    39   21   33 1    
    40   34   35 1    
@<TRIPOS>SUBSTRUCTURE
     1 UNK         1 GROUP             0       ****    0 ROOT    
