@<TRIPOS>MOLECULE
63
43   45    1
SMALL
USER_CHARGES


@<TRIPOS>ATOM
      1 O1          3.8904  -49.9128    7.2593 O.co2     1 UNK         0.0000 
      2 C2          3.1473  -49.0461    6.7409 C.2       1 UNK         0.0000 
      3 O3          3.5646  -47.8962    6.4882 O.co2     1 UNK         0.0000 
      4 C4          1.7208  -49.3609    6.4386 C.2       1 UNK         0.0000 
      5 S5          1.1474  -50.8838    7.0571 S.3       1 UNK         0.0000 
      6 C6         -0.4833  -50.5334    6.5324 C.ar      1 UNK         0.0000 
      7 C7         -1.6406  -51.2952    6.7763 C.ar      1 UNK         0.0000 
      8 C8         -2.8824  -50.8186    6.3195 C.ar      1 UNK         0.0000 
      9 C9         -2.9595  -49.6440    5.5579 C.ar      1 UNK         0.0000 
     10 C10        -1.7949  -48.9052    5.3019 C.ar      1 UNK         0.0000 
     11 C11        -0.5283  -49.2970    5.8096 C.ar      1 UNK         0.0000 
     12 C12         0.7542  -48.6240    5.7715 C.2       1 UNK         0.0000 
     13 C13         0.9557  -47.2723    5.1257 C.3       1 UNK         0.0000 
     14 C14         0.9944  -46.0835    6.1170 C.3       1 UNK         0.0000 
     15 C15        -0.1952  -46.0031    7.0806 C.3       1 UNK         0.0000 
     16 O16        -1.3623  -45.5679    6.3922 O.3       1 UNK         0.0000 
     17 C17        -2.5506  -45.5270    7.0930 C.ar      1 UNK         0.0000 
     18 C18        -2.7548  -46.1613    8.3473 C.ar      1 UNK         0.0000 
     19 C19        -4.0188  -46.1288    8.9720 C.ar      1 UNK         0.0000 
     20 C20        -4.2211  -46.8876   10.2713 C.3       1 UNK         0.0000 
     21 C21        -5.0918  -45.4247    8.3755 C.ar      1 UNK         0.0000 
     22 Cl22       -6.6499  -45.3836    9.1387 Cl        1 UNK         0.0000 
     23 C23        -4.8818  -44.7661    7.1412 C.ar      1 UNK         0.0000 
     24 C24        -6.0115  -43.9984    6.4841 C.3       1 UNK         0.0000 
     25 C25        -3.6224  -44.8331    6.5031 C.ar      1 UNK         0.0000 
     26 H26        -1.5795  -52.2143    7.3495 H         1 UNK         0.0000 
     27 Cl27       -4.3386  -51.6470    6.7125 Cl        1 UNK         0.0000 
     28 H28        -3.9194  -49.3012    5.2017 H         1 UNK         0.0000 
     29 H29        -1.8832  -47.9909    4.7442 H         1 UNK         0.0000 
     30 H30         0.1640  -47.0922    4.3960 H         1 UNK         0.0000 
     31 H31         1.8698  -47.2667    4.5291 H         1 UNK         0.0000 
     32 H32         1.0868  -45.1511    5.5646 H         1 UNK         0.0000 
     33 H33         1.8922  -46.1450    6.7293 H         1 UNK         0.0000 
     34 H34         0.0117  -45.2867    7.8785 H         1 UNK         0.0000 
     35 H35        -0.3308  -46.9792    7.5505 H         1 UNK         0.0000 
     36 H36        -1.9638  -46.7103    8.8408 H         1 UNK         0.0000 
     37 H37        -4.7411  -46.2780   11.0120 H         1 UNK         0.0000 
     38 H38        -4.8108  -47.7889   10.0844 H         1 UNK         0.0000 
     39 H39        -3.2644  -47.1869   10.7059 H         1 UNK         0.0000 
     40 H40        -5.6796  -43.4841    5.5791 H         1 UNK         0.0000 
     41 H41        -6.8222  -44.6778    6.2118 H         1 UNK         0.0000 
     42 H42        -6.4107  -43.2477    7.1690 H         1 UNK         0.0000 
     43 H43        -3.4707  -44.3451    5.5472 H         1 UNK         0.0000 
@<TRIPOS>BOND
     1    1    2 2    
     2    2    3 1    
     3    2    4 1    
     4    4    5 1    
     5    4   12 2    
     6    5    6 1    
     7    6    7 ar   
     8    6   11 ar   
     9    7    8 ar   
    10    7   26 1    
    11    8    9 ar   
    12    8   27 1    
    13    9   10 ar   
    14    9   28 1    
    15   10   11 ar   
    16   10   29 1    
    17   11   12 1    
    18   12   13 1    
    19   13   30 1    
    20   13   31 1    
    21   13   14 1    
    22   14   15 1    
    23   14   32 1    
    24   14   33 1    
    25   15   16 1    
    26   15   34 1    
    27   15   35 1    
    28   16   17 1    
    29   17   18 ar   
    30   17   25 ar   
    31   18   19 ar   
    32   18   36 1    
    33   19   20 1    
    34   19   21 ar   
    35   20   37 1    
    36   20   38 1    
    37   20   39 1    
    38   21   22 1    
    39   21   23 ar   
    40   23   24 1    
    41   23   25 ar   
    42   24   40 1    
    43   24   41 1    
    44   24   42 1    
    45   25   43 1    
@<TRIPOS>SUBSTRUCTURE
     1 UNK         1 GROUP             0       ****    0 ROOT    
