@<TRIPOS>MOLECULE
58
47   49    1
SMALL
USER_CHARGES


@<TRIPOS>ATOM
      1 O1          3.8903  -49.8262    7.1167 O.co2     1 UNK         0.0000 
      2 C2          3.1444  -48.9593    6.6057 C.2       1 UNK         0.0000 
      3 O3          3.6298  -47.8564    6.2829 O.co2     1 UNK         0.0000 
      4 C4          1.6967  -49.2066    6.4083 C.ar      1 UNK         0.0000 
      5 C5         -0.2621  -50.3558    6.4457 C.ar      1 UNK         0.0000 
      6 C6         -1.3367  -51.2906    6.5989 C.ar      1 UNK         0.0000 
      7 C7         -2.6513  -50.8979    6.3447 C.ar      1 UNK         0.0000 
      8 C8         -2.9186  -49.5838    5.8919 C.ar      1 UNK         0.0000 
      9 C9         -1.8522  -48.6553    5.7234 C.ar      1 UNK         0.0000 
     10 C10        -0.5269  -49.0254    6.0090 C.ar      1 UNK         0.0000 
     11 C11         0.7199  -48.3234    5.9886 C.ar      1 UNK         0.0000 
     12 C12         0.8738  -46.8713    5.6025 C.3       1 UNK         0.0000 
     13 C13         0.9587  -45.9342    6.8261 C.3       1 UNK         0.0000 
     14 C14        -0.3001  -45.9593    7.7126 C.3       1 UNK         0.0000 
     15 O15        -1.3807  -45.3771    6.9944 O.3       1 UNK         0.0000 
     16 C16        -2.6485  -45.4526    7.5319 C.ar      1 UNK         0.0000 
     17 C17        -2.9716  -46.1370    8.7274 C.ar      1 UNK         0.0000 
     18 C18        -4.3042  -46.2018    9.1838 C.ar      1 UNK         0.0000 
     19 C19        -4.6224  -46.9920   10.4412 C.3       1 UNK         0.0000 
     20 C20        -5.3304  -45.5556    8.4565 C.ar      1 UNK         0.0000 
     21 Cl21       -6.9729  -45.6522    8.9915 Cl        1 UNK         0.0000 
     22 C22        -5.0112  -44.8439    7.2771 C.ar      1 UNK         0.0000 
     23 C23        -6.0922  -44.1321    6.4827 C.3       1 UNK         0.0000 
     24 C24        -3.6781  -44.8065    6.8249 C.ar      1 UNK         0.0000 
     25 H25        -1.1147  -52.2741    6.9367 H         1 UNK         0.0000 
     26 Cl26       -4.0048  -51.9682    6.5931 Cl        1 UNK         0.0000 
     27 H27        -3.9346  -49.2814    5.6866 H         1 UNK         0.0000 
     28 H28        -2.0598  -47.6477    5.3945 H         1 UNK         0.0000 
     29 H29         0.0381  -46.5720    4.9674 H         1 UNK         0.0000 
     30 H30         1.7616  -46.7426    4.9764 H         1 UNK         0.0000 
     31 H31         1.1428  -44.9192    6.4756 H         1 UNK         0.0000 
     32 H32         1.8303  -46.1999    7.4255 H         1 UNK         0.0000 
     33 H33        -0.1097  -45.3926    8.6243 H         1 UNK         0.0000 
     34 H34        -0.5365  -46.9808    8.0128 H         1 UNK         0.0000 
     35 H35        -2.2029  -46.6280    9.3000 H         1 UNK         0.0000 
     36 H36        -5.3073  -46.4448   11.0889 H         1 UNK         0.0000 
     37 H37        -5.0863  -47.9404   10.1735 H         1 UNK         0.0000 
     38 H38        -3.7224  -47.2055   11.0150 H         1 UNK         0.0000 
     39 H39        -5.6783  -43.5913    5.6304 H         1 UNK         0.0000 
     40 H40        -6.8229  -44.8477    6.1042 H         1 UNK         0.0000 
     41 H41        -6.6130  -43.4123    7.1142 H         1 UNK         0.0000 
     42 H42        -3.4366  -44.2788    5.9162 H         1 UNK         0.0000 
     43 C43         1.7839  -51.7162    7.0809 C.3       1 UNK         0.0000 
     44 H44         1.0620  -52.5158    7.1329 H         1 UNK         0.0000 
     45 H45         2.5411  -52.0046    6.3525 H         1 UNK         0.0000 
     46 H46         2.2130  -51.5907    8.0744 H         1 UNK         0.0000 
     47 N47         1.1078  -50.4699    6.6570 N.pl3     1 UNK         0.0000 
@<TRIPOS>BOND
     1    1    2 2    
     2    2    3 1    
     3    2    4 1    
     4    4   11 ar   
     5    4   47 ar   
     6    5    6 ar   
     7    5   10 ar   
     8    5   47 ar   
     9    6    7 ar   
    10    6   25 1    
    11    7    8 ar   
    12    7   26 1    
    13    8    9 ar   
    14    8   27 1    
    15    9   10 ar   
    16    9   28 1    
    17   10   11 ar   
    18   11   12 1    
    19   12   29 1    
    20   12   30 1    
    21   12   13 1    
    22   13   14 1    
    23   13   31 1    
    24   13   32 1    
    25   14   15 1    
    26   14   33 1    
    27   14   34 1    
    28   15   16 1    
    29   16   17 ar   
    30   16   24 ar   
    31   17   18 ar   
    32   17   35 1    
    33   18   19 1    
    34   18   20 ar   
    35   19   36 1    
    36   19   37 1    
    37   19   38 1    
    38   20   21 1    
    39   20   22 ar   
    40   22   23 1    
    41   22   24 ar   
    42   23   39 1    
    43   23   40 1    
    44   23   41 1    
    45   24   42 1    
    46   43   44 1    
    47   43   45 1    
    48   43   46 1    
    49   43   47 1    
@<TRIPOS>SUBSTRUCTURE
     1 UNK         1 GROUP             0       ****    0 ROOT    
