p38a_3fmk
                    3D
 Schrodinger Suite 2021-2.
 46 49  0  0  1  0            999 V2000
   37.9298   35.7644   18.1009 C   0  0  0  0  0  0
   38.4546   36.2907   16.9050 C   0  0  0  0  0  0
   32.8343   34.9845   23.0223 C   0  0  0  0  0  0
   36.2188   36.3240   15.9401 C   0  0  0  0  0  0
   34.8814   39.1982   21.6290 C   0  0  0  0  0  0
   31.9773   38.9606   25.4516 C   0  0  1  0  0  0
   31.3977   39.8747   26.4902 C   0  0  0  0  0  0
   33.5129   39.0602   23.4449 C   0  0  0  0  0  0
   34.4447   34.9756   21.1750 C   0  0  0  0  0  0
   35.3426   35.7252   20.2878 C   0  0  0  0  0  0
   35.4879   37.0641   20.4088 C   0  0  0  0  0  0
   36.5461   35.5225   18.2256 C   0  0  0  0  0  0
   35.6906   35.7958   17.1347 C   0  0  0  0  0  0
   34.7673   37.8067   21.4344 C   0  0  0  0  0  0
   33.9268   37.0956   22.3121 C   0  0  0  0  0  0
   32.8295   39.7285   24.5485 N   0  0  0  0  0  0
   37.5991   36.5714   15.8235 C   0  0  0  0  0  0
   38.1059   37.0747   14.6730 F   0  0  0  0  0  0
   38.7610   35.4926   19.1356 F   0  0  0  0  0  0
   36.0782   34.9777   19.3973 O   0  0  0  0  0  0
   34.3186   33.7555   21.0783 O   0  0  0  0  0  0
   33.7619   35.6869   22.1182 N   0  0  0  0  0  0
   33.3145   37.7488   23.3206 N   0  0  0  0  0  0
   34.2455   39.8238   22.6409 N   0  0  0  0  0  0
   32.7920   37.8946   26.1224 C   0  0  0  0  0  0
   30.5455   39.1068   27.3933 N   0  0  3  0  0  0
   29.4587   38.4149   26.9984 N   0  0  0  0  0  0
   29.0374   37.9068   28.1367 C   0  0  0  0  0  0
   29.7677   38.2254   29.1898 N   0  0  0  0  0  0
   30.7801   39.0280   28.7065 N   0  0  0  0  0  0
   39.5098   36.4999   16.8279 H   0  0  0  0  0  0
   31.9109   35.5506   23.1491 H   0  0  0  0  0  0
   32.5319   33.9955   22.6752 H   0  0  0  0  0  0
   33.2904   34.8642   24.0058 H   0  0  0  0  0  0
   35.5657   36.5407   15.1096 H   0  0  0  0  0  0
   35.5046   39.8018   20.9876 H   0  0  0  0  0  0
   31.1702   38.4978   24.8838 H   0  0  0  0  0  0
   32.2049   40.3376   27.0580 H   0  0  0  0  0  0
   30.8057   40.6493   26.0028 H   0  0  0  0  0  0
   36.1703   37.6222   19.7885 H   0  0  0  0  0  0
   34.6347   35.6004   17.2106 H   0  0  0  0  0  0
   32.9492   40.7467   24.6905 H   0  0  0  0  0  0
   32.1558   37.3214   26.7966 H   0  0  0  0  0  0
   33.2132   37.2304   25.3677 H   0  0  0  0  0  0
   33.5992   38.3575   26.6902 H   0  0  0  0  0  0
   28.1582   37.2740   28.2099 H   0  0  0  0  0  0
  1  2  1  0  0  0
  1 12  2  0  0  0
  1 19  1  0  0  0
  2 17  2  0  0  0
  2 31  1  0  0  0
  3 22  1  0  0  0
  3 32  1  0  0  0
  3 33  1  0  0  0
  3 34  1  0  0  0
  4 13  2  0  0  0
  4 17  1  0  0  0
  4 35  1  0  0  0
  5 14  1  0  0  0
  5 24  2  0  0  0
  5 36  1  0  0  0
  6  7  1  0  0  0
  6 16  1  0  0  0
  6 25  1  0  0  0
  6 37  1  0  0  0
  7 26  1  0  0  0
  7 38  1  0  0  0
  7 39  1  0  0  0
  8 16  1  0  0  0
  8 23  2  0  0  0
  8 24  1  0  0  0
  9 10  1  0  0  0
  9 21  2  0  0  0
  9 22  1  0  0  0
 10 11  2  0  0  0
 10 20  1  0  0  0
 11 14  1  0  0  0
 11 40  1  0  0  0
 12 13  1  0  0  0
 12 20  1  0  0  0
 13 41  1  0  0  0
 14 15  2  0  0  0
 15 22  1  0  0  0
 15 23  1  0  0  0
 16 42  1  0  0  0
 17 18  1  0  0  0
 25 43  1  0  0  0
 25 44  1  0  0  0
 25 45  1  0  0  0
 26 27  1  0  0  0
 26 30  1  0  0  0
 27 28  2  0  0  0
 28 29  1  0  0  0
 28 46  1  0  0  0
 29 30  2  0  0  0
M  END
> <s_m_entry_id>
266

> <s_m_entry_name>
p38_p38a_3fmk.1

> <r_user_dG.exp>
-11.8325

> <r_m_Molecular_weight>
414.37742

> <s_m_Source_Path>
C:\Users\yujiethinkpad\Desktop\05A\p38

> <s_m_Source_File>
p38_p38a_3fmk.sdf

> <i_m_Source_File_Index>
1

> <s_m_job_name>
align_ligands_5440

> <i_phase_Input_Structure_Number>
8

> <i_phase_Structure_Number>
8

> <r_phase_Similarity_to_Reference>
0.845739244992899

> <i_phase_Reference_Structure>
1

> <s_phase_Alignment_Method>
snapped core

> <s_phase_Alignment_Reason>


> <s_phase_Core_SMARTS>
a1aaaa(a12)aa(a(=A)[a]2)Aa3aaaaa3

> <s_f3d_frozen_atoms>
23 8 24 5 14 15 11 10 9 21 22 20 12 13 4 17 2 1 36 40 21 41 35 18 31 19

> <s_m_subgroup_title>
align_ligands_5440

> <s_m_subgroupid>
align_ligands_5440

> <b_m_subgroup_collapsed>
0

$$$$
