p38a_2z
                    3D
 Schrodinger Suite 2021-2.
 45 47  0  0  1  0            999 V2000
   38.4546   36.2907   16.9050 C   0  0  0  0  0  0
   34.4447   34.9756   21.1750 C   0  0  0  0  0  0
   37.9298   35.7644   18.1009 C   0  0  0  0  0  0
   33.5129   39.0602   23.4449 C   0  0  0  0  0  0
   32.0056   38.9548   25.4727 C   0  0  0  0  0  0
   34.7673   37.8067   21.4344 C   0  0  0  0  0  0
   35.4879   37.0641   20.4088 C   0  0  0  0  0  0
   37.5991   36.5714   15.8235 C   0  0  0  0  0  0
   36.2188   36.3240   15.9401 C   0  0  0  0  0  0
   35.6906   35.7958   17.1347 C   0  0  0  0  0  0
   33.9268   37.0956   22.3121 C   0  0  0  0  0  0
   34.8814   39.1982   21.6290 C   0  0  0  0  0  0
   35.3426   35.7252   20.2878 C   0  0  0  0  0  0
   36.5461   35.5225   18.2256 C   0  0  0  0  0  0
   32.8343   34.9845   23.0223 C   0  0  0  0  0  0
   38.7610   35.4926   19.1356 F   0  0  0  0  0  0
   36.0782   34.9777   19.3973 O   0  0  0  0  0  0
   34.2455   39.8238   22.6409 N   0  0  0  0  0  0
   34.3186   33.7555   21.0783 O   0  0  0  0  0  0
   33.7619   35.6869   22.1182 N   0  0  0  0  0  0
   33.3145   37.7488   23.3206 N   0  0  0  0  0  0
   32.8287   39.7287   24.5478 N   0  0  0  0  0  0
   39.5095   36.4983   16.8254 H   0  0  0  0  0  0
   31.4187   39.8703   26.5058 C   0  0  0  0  0  0
   36.1732   37.6249   19.7928 H   0  0  0  0  0  0
   35.5592   36.5308   15.1103 H   0  0  0  0  0  0
   34.6339   35.5838   17.2047 H   0  0  0  0  0  0
   35.5055   39.8015   20.9882 H   0  0  0  0  0  0
   31.9109   35.5506   23.1491 H   0  0  0  0  0  0
   32.5319   33.9955   22.6752 H   0  0  0  0  0  0
   33.2904   34.8642   24.0058 H   0  0  0  0  0  0
   32.9271   40.7511   24.6742 H   0  0  0  0  0  0
   38.1059   37.0747   14.6730 F   0  0  0  0  0  0
   30.8997   38.2819   24.7148 C   0  0  0  0  0  0
   32.8527   37.9170   26.1475 C   0  0  0  0  0  0
   30.1204   39.2367   24.0939 O   0  0  0  0  0  0
   29.3540   38.8762   23.5622 H   0  0  0  0  0  0
   31.3262   37.6167   23.9640 H   0  0  0  0  0  0
   30.2853   37.7042   25.4052 H   0  0  0  0  0  0
   32.2382   37.3393   26.8380 H   0  0  0  0  0  0
   33.2792   37.2517   25.3968 H   0  0  0  0  0  0
   33.6563   38.4060   26.6983 H   0  0  0  0  0  0
   30.8042   39.2925   27.1962 H   0  0  0  0  0  0
   32.2223   40.3592   27.0565 H   0  0  0  0  0  0
   30.8031   40.6244   26.0154 H   0  0  0  0  0  0
  1  3  1  0  0  0
  1  8  2  0  0  0
  1 23  1  0  0  0
  2 13  1  0  0  0
  2 19  2  0  0  0
  2 20  1  0  0  0
  3 14  2  0  0  0
  3 16  1  0  0  0
  4 18  1  0  0  0
  4 21  2  0  0  0
  4 22  1  0  0  0
  5 22  1  0  0  0
  5 24  1  0  0  0
  5 34  1  0  0  0
  5 35  1  0  0  0
  6  7  1  0  0  0
  6 11  2  0  0  0
  6 12  1  0  0  0
  7 13  2  0  0  0
  7 25  1  0  0  0
  8  9  1  0  0  0
  8 33  1  0  0  0
  9 10  2  0  0  0
  9 26  1  0  0  0
 10 14  1  0  0  0
 10 27  1  0  0  0
 11 20  1  0  0  0
 11 21  1  0  0  0
 12 18  2  0  0  0
 12 28  1  0  0  0
 13 17  1  0  0  0
 14 17  1  0  0  0
 15 20  1  0  0  0
 15 29  1  0  0  0
 15 30  1  0  0  0
 15 31  1  0  0  0
 22 32  1  0  0  0
 24 43  1  0  0  0
 24 44  1  0  0  0
 24 45  1  0  0  0
 34 36  1  0  0  0
 34 38  1  0  0  0
 34 39  1  0  0  0
 35 40  1  0  0  0
 35 41  1  0  0  0
 35 42  1  0  0  0
 36 37  1  0  0  0
M  END
> <s_m_entry_id>
260

> <s_m_entry_name>
p38_p38a_2z.1

> <r_user_dG.exp>
-10.359

> <r_m_Molecular_weight>
376.36596

> <s_m_Source_Path>
C:\Users\yujiethinkpad\Desktop\05A\p38

> <s_m_Source_File>
p38_p38a_2z.sdf

> <i_m_Source_File_Index>
1

> <s_m_job_name>
align_ligands_5440

> <i_phase_Input_Structure_Number>
2

> <i_phase_Structure_Number>
2

> <r_phase_Similarity_to_Reference>
0.903434597442067

> <i_phase_Reference_Structure>
1

> <s_phase_Alignment_Method>
snapped core

> <s_phase_Alignment_Reason>


> <s_phase_Core_SMARTS>
a1aaaa(a12)aa(a(=A)[a]2)Aa3aaaaa3

> <s_f3d_frozen_atoms>
21 4 18 12 6 11 7 13 2 19 20 17 14 10 9 8 1 3 28 25 19 27 26 33 23 16

> <s_m_subgroup_title>
align_ligands_5440

> <s_m_subgroupid>
align_ligands_5440

> <b_m_subgroup_collapsed>
0

$$$$
