p38a_3flq
                    3D
 Schrodinger Suite 2021-2.
 47 49  0  0  1  0            999 V2000
   33.5129   39.0602   23.4449 C   0  0  0  0  0  0
   34.7673   37.8067   21.4344 C   0  0  0  0  0  0
   35.4879   37.0641   20.4088 C   0  0  0  0  0  0
   33.9268   37.0956   22.3121 C   0  0  0  0  0  0
   35.3426   35.7252   20.2878 C   0  0  0  0  0  0
   32.0056   38.9548   25.4726 C   0  0  1  0  0  0
   32.8527   37.9170   26.1475 C   0  0  0  0  0  0
   31.1958   39.2111   29.2076 C   0  0  0  0  0  0
   33.7619   35.6869   22.1182 N   0  0  0  0  0  0
   31.4187   39.8703   26.5058 C   0  0  0  0  0  0
   38.1059   37.0747   14.6730 F   0  0  0  0  0  0
   37.5991   36.5714   15.8235 C   0  0  0  0  0  0
   36.2188   36.3240   15.9401 C   0  0  0  0  0  0
   35.6906   35.7958   17.1347 C   0  0  0  0  0  0
   38.4546   36.2907   16.9050 C   0  0  0  0  0  0
   37.9298   35.7644   18.1009 C   0  0  0  0  0  0
   38.7610   35.4926   19.1356 F   0  0  0  0  0  0
   36.5461   35.5225   18.2256 C   0  0  0  0  0  0
   36.0782   34.9777   19.3973 O   0  0  0  0  0  0
   34.4447   34.9756   21.1750 C   0  0  0  0  0  0
   34.3186   33.7555   21.0783 O   0  0  0  0  0  0
   34.8814   39.1982   21.6290 C   0  0  0  0  0  0
   34.2455   39.8238   22.6409 N   0  0  0  0  0  0
   33.3145   37.7488   23.3206 N   0  0  0  0  0  0
   32.8343   34.9845   23.0223 C   0  0  0  0  0  0
   32.8287   39.7287   24.5478 N   0  0  0  0  0  0
   30.4152   38.9268   27.6333 S   0  0  0  0  0  0
   29.0885   39.5513   27.6762 O   0  0  0  0  0  0
   30.5883   37.5083   27.3015 O   0  0  0  0  0  0
   36.1645   37.6297   19.7892 H   0  0  0  0  0  0
   31.2020   38.4658   24.9219 H   0  0  0  0  0  0
   32.2382   37.3393   26.8380 H   0  0  0  0  0  0
   33.2792   37.2518   25.3968 H   0  0  0  0  0  0
   33.6563   38.4060   26.6983 H   0  0  0  0  0  0
   30.6543   38.6711   29.9843 H   0  0  0  0  0  0
   32.2265   38.8584   29.1710 H   0  0  0  0  0  0
   31.1844   40.2778   29.4313 H   0  0  0  0  0  0
   32.2223   40.3592   27.0565 H   0  0  0  0  0  0
   30.8031   40.6244   26.0154 H   0  0  0  0  0  0
   35.5572   36.5465   15.1164 H   0  0  0  0  0  0
   34.6300   35.6063   17.2143 H   0  0  0  0  0  0
   39.5087   36.5087   16.8302 H   0  0  0  0  0  0
   35.4978   39.8051   20.9838 H   0  0  0  0  0  0
   32.5319   33.9955   22.6752 H   0  0  0  0  0  0
   33.2904   34.8642   24.0058 H   0  0  0  0  0  0
   31.9109   35.5506   23.1491 H   0  0  0  0  0  0
   32.9271   40.7511   24.6742 H   0  0  0  0  0  0
  1 23  1  0  0  0
  1 24  2  0  0  0
  1 26  1  0  0  0
  2  3  1  0  0  0
  2  4  2  0  0  0
  2 22  1  0  0  0
  3  5  2  0  0  0
  3 30  1  0  0  0
  4  9  1  0  0  0
  4 24  1  0  0  0
  5 19  1  0  0  0
  5 20  1  0  0  0
  6  7  1  0  0  0
  6 10  1  0  0  0
  6 26  1  0  0  0
  6 31  1  0  0  0
  7 32  1  0  0  0
  7 33  1  0  0  0
  7 34  1  0  0  0
  8 27  1  0  0  0
  8 35  1  0  0  0
  8 36  1  0  0  0
  8 37  1  0  0  0
  9 20  1  0  0  0
  9 25  1  0  0  0
 10 27  1  0  0  0
 10 38  1  0  0  0
 10 39  1  0  0  0
 11 12  1  0  0  0
 12 13  1  0  0  0
 12 15  2  0  0  0
 13 14  2  0  0  0
 13 40  1  0  0  0
 14 18  1  0  0  0
 14 41  1  0  0  0
 15 16  1  0  0  0
 15 42  1  0  0  0
 16 17  1  0  0  0
 16 18  2  0  0  0
 18 19  1  0  0  0
 20 21  2  0  0  0
 22 23  2  0  0  0
 22 43  1  0  0  0
 25 44  1  0  0  0
 25 45  1  0  0  0
 25 46  1  0  0  0
 26 47  1  0  0  0
 27 28  2  0  0  0
 27 29  2  0  0  0
M  END
> <s_m_entry_id>
262

> <s_m_entry_name>
p38_p38a_3flq.1

> <r_user_dG.exp>
-9.93099

> <r_m_Molecular_weight>
424.42936

> <s_m_Source_Path>
C:\Users\yujiethinkpad\Desktop\05A\p38

> <s_m_Source_File>
p38_p38a_3flq.sdf

> <i_m_Source_File_Index>
1

> <s_m_job_name>
align_ligands_5440

> <i_phase_Input_Structure_Number>
4

> <i_phase_Structure_Number>
4

> <r_phase_Similarity_to_Reference>
0.876522663518071

> <i_phase_Reference_Structure>
1

> <s_phase_Alignment_Method>
snapped core

> <s_phase_Alignment_Reason>


> <s_phase_Core_SMARTS>
a1aaaa(a12)aa(a(=A)[a]2)Aa3aaaaa3

> <s_f3d_frozen_atoms>
24 1 23 22 2 4 3 5 20 21 9 19 18 14 13 12 15 16 43 30 21 41 40 11 42 17

> <s_m_subgroup_title>
align_ligands_5440

> <s_m_subgroupid>
align_ligands_5440

> <b_m_subgroup_collapsed>
0

$$$$
