p38a_3fmh
                    3D
 Schrodinger Suite 2021-2.
 46 49  0  0  1  0            999 V2000
   38.1059   37.0747   14.6730 F   0  0  0  0  0  0
   37.5991   36.5714   15.8235 C   0  0  0  0  0  0
   36.2188   36.3240   15.9401 C   0  0  0  0  0  0
   35.6906   35.7958   17.1347 C   0  0  0  0  0  0
   38.4546   36.2907   16.9050 C   0  0  0  0  0  0
   37.9298   35.7644   18.1009 C   0  0  0  0  0  0
   38.7610   35.4926   19.1356 F   0  0  0  0  0  0
   36.5461   35.5225   18.2256 C   0  0  0  0  0  0
   36.0782   34.9777   19.3973 O   0  0  0  0  0  0
   35.3426   35.7252   20.2878 C   0  0  0  0  0  0
   34.4447   34.9756   21.1750 C   0  0  0  0  0  0
   34.3186   33.7555   21.0783 O   0  0  0  0  0  0
   33.7619   35.6869   22.1182 N   0  0  0  0  0  0
   32.8343   34.9845   23.0223 C   0  0  0  0  0  0
   33.9268   37.0956   22.3121 C   0  0  0  0  0  0
   33.3145   37.7488   23.3206 N   0  0  0  0  0  0
   35.4879   37.0641   20.4088 C   0  0  0  0  0  0
   34.7673   37.8067   21.4344 C   0  0  0  0  0  0
   34.8814   39.1982   21.6290 C   0  0  0  0  0  0
   34.2455   39.8238   22.6409 N   0  0  0  0  0  0
   33.5129   39.0602   23.4449 C   0  0  0  0  0  0
   32.8287   39.7287   24.5478 N   0  0  0  0  0  0
   31.9756   38.9609   25.4503 C   0  0  2  0  0  0
   31.3952   39.8751   26.4883 C   0  0  0  0  0  0
   32.7897   37.8949   26.1219 C   0  0  0  0  0  0
   32.2375   36.5832   25.7962 N   0  0  3  0  0  0
   32.7446   35.4187   26.2464 N   0  0  0  0  0  0
   31.9298   34.5429   25.6983 C   0  0  0  0  0  0
   30.9721   35.0665   24.9550 N   0  0  0  0  0  0
   31.1664   36.4310   25.0119 N   0  0  0  0  0  0
   35.5598   36.5349   15.1121 H   0  0  0  0  0  0
   34.6349   35.5931   17.2135 H   0  0  0  0  0  0
   39.5083   36.5063   16.8268 H   0  0  0  0  0  0
   31.9109   35.5506   23.1491 H   0  0  0  0  0  0
   32.5319   33.9955   22.6752 H   0  0  0  0  0  0
   33.2904   34.8642   24.0058 H   0  0  0  0  0  0
   36.1599   37.6296   19.7824 H   0  0  0  0  0  0
   35.5029   39.8027   20.9863 H   0  0  0  0  0  0
   32.9483   40.7468   24.6900 H   0  0  0  0  0  0
   31.1690   38.4980   24.8819 H   0  0  0  0  0  0
   30.7584   39.3019   27.1621 H   0  0  0  0  0  0
   32.2019   40.3380   27.0568 H   0  0  0  0  0  0
   30.8037   40.6497   26.0004 H   0  0  0  0  0  0
   33.8210   37.9517   25.7734 H   0  0  0  0  0  0
   32.7624   38.0428   27.2014 H   0  0  0  0  0  0
   32.0324   33.4718   25.8427 H   0  0  0  0  0  0
  1  2  1  0  0  0
  2  3  1  0  0  0
  2  5  2  0  0  0
  3  4  2  0  0  0
  3 31  1  0  0  0
  4  8  1  0  0  0
  4 32  1  0  0  0
  5  6  1  0  0  0
  5 33  1  0  0  0
  6  7  1  0  0  0
  6  8  2  0  0  0
  8  9  1  0  0  0
  9 10  1  0  0  0
 10 11  1  0  0  0
 10 17  2  0  0  0
 11 12  2  0  0  0
 11 13  1  0  0  0
 13 14  1  0  0  0
 13 15  1  0  0  0
 14 34  1  0  0  0
 14 35  1  0  0  0
 14 36  1  0  0  0
 15 16  1  0  0  0
 15 18  2  0  0  0
 16 21  2  0  0  0
 17 18  1  0  0  0
 17 37  1  0  0  0
 18 19  1  0  0  0
 19 20  2  0  0  0
 19 38  1  0  0  0
 20 21  1  0  0  0
 21 22  1  0  0  0
 22 23  1  0  0  0
 22 39  1  0  0  0
 23 24  1  0  0  0
 23 25  1  0  0  0
 23 40  1  0  0  0
 24 41  1  0  0  0
 24 42  1  0  0  0
 24 43  1  0  0  0
 25 26  1  0  0  0
 25 44  1  0  0  0
 25 45  1  0  0  0
 26 27  1  0  0  0
 26 30  1  0  0  0
 27 28  2  0  0  0
 28 29  1  0  0  0
 28 46  1  0  0  0
 29 30  2  0  0  0
M  END
> <s_m_entry_id>
265

> <s_m_entry_name>
p38_p38a_3fmh.1

> <r_user_dG.exp>
-10.8254

> <r_m_Molecular_weight>
414.37742

> <s_m_Source_Path>
C:\Users\yujiethinkpad\Desktop\05A\p38

> <s_m_Source_File>
p38_p38a_3fmh.sdf

> <i_m_Source_File_Index>
1

> <s_m_job_name>
align_ligands_5440

> <i_phase_Input_Structure_Number>
7

> <i_phase_Structure_Number>
7

> <r_phase_Similarity_to_Reference>
0.850116158748271

> <i_phase_Reference_Structure>
1

> <s_phase_Alignment_Method>
snapped core

> <s_phase_Alignment_Reason>


> <s_phase_Core_SMARTS>
a1aaaa(a12)aa(a(=A)[a]2)Aa3aaaaa3

> <s_f3d_frozen_atoms>
16 21 20 19 18 15 17 10 11 12 13 9 8 4 3 2 5 6 38 37 12 32 31 1 33 7

> <s_m_subgroup_title>
align_ligands_5440

> <s_m_subgroupid>
align_ligands_5440

> <b_m_subgroup_collapsed>
0

$$$$
