p38a_2j
                    3D
 Schrodinger Suite 2021-2.
 48 51  0  0  1  0            999 V2000
   31.3939   39.8916   26.5279 C   0  0  0  0  0  0
   32.4679   40.4295   27.4929 C   0  0  0  0  0  0
   33.8742   38.5139   27.1413 C   0  0  0  0  0  0
   32.8687   37.8826   26.1593 C   0  0  0  0  0  0
   38.4546   36.2907   16.9050 C   0  0  0  0  0  0
   33.1820   39.3391   28.0832 O   0  0  0  0  0  0
   34.4447   34.9756   21.1750 C   0  0  0  0  0  0
   37.9298   35.7644   18.1009 C   0  0  0  0  0  0
   33.5129   39.0602   23.4449 C   0  0  0  0  0  0
   32.0057   38.9547   25.4727 C   0  0  0  0  0  0
   34.7673   37.8067   21.4344 C   0  0  0  0  0  0
   35.4879   37.0641   20.4088 C   0  0  0  0  0  0
   36.2188   36.3240   15.9401 C   0  0  0  0  0  0
   35.6906   35.7958   17.1347 C   0  0  0  0  0  0
   33.9268   37.0956   22.3121 C   0  0  0  0  0  0
   34.8814   39.1982   21.6290 C   0  0  0  0  0  0
   35.3426   35.7252   20.2878 C   0  0  0  0  0  0
   36.5461   35.5225   18.2256 C   0  0  0  0  0  0
   32.8343   34.9845   23.0223 C   0  0  0  0  0  0
   38.7610   35.4926   19.1356 F   0  0  0  0  0  0
   36.0782   34.9777   19.3973 C   0  0  0  0  0  0
   34.2455   39.8238   22.6409 N   0  0  0  0  0  0
   34.3186   33.7555   21.0783 O   0  0  0  0  0  0
   33.7619   35.6869   22.1182 N   0  0  0  0  0  0
   33.3145   37.7488   23.3206 N   0  0  0  0  0  0
   32.8287   39.7286   24.5479 N   0  0  0  0  0  0
   30.6378   39.3534   27.1021 H   0  0  0  0  0  0
   30.8757   40.7212   26.0449 H   0  0  0  0  0  0
   33.1589   41.0976   26.9742 H   0  0  0  0  0  0
   32.0021   41.0199   28.2831 H   0  0  0  0  0  0
   34.4142   37.7341   27.6801 H   0  0  0  0  0  0
   34.6265   39.0985   26.6073 H   0  0  0  0  0  0
   33.3974   37.2860   25.4145 H   0  0  0  0  0  0
   32.2268   37.1889   26.7048 H   0  0  0  0  0  0
   39.5094   36.4993   16.8258 H   0  0  0  0  0  0
   31.2230   38.4909   24.8692 H   0  0  0  0  0  0
   36.1732   37.6249   19.7928 H   0  0  0  0  0  0
   35.5644   36.5332   15.1069 H   0  0  0  0  0  0
   34.6340   35.5837   17.2046 H   0  0  0  0  0  0
   35.5055   39.8015   20.9882 H   0  0  0  0  0  0
   31.9109   35.5506   23.1491 H   0  0  0  0  0  0
   32.5319   33.9955   22.6752 H   0  0  0  0  0  0
   33.2904   34.8642   24.0058 H   0  0  0  0  0  0
   32.9272   40.7510   24.6743 H   0  0  0  0  0  0
   36.9838   34.6176   19.8855 H   0  0  0  0  0  0
   35.4858   34.1275   19.0593 H   0  0  0  0  0  0
   37.5991   36.5714   15.8235 C   0  0  0  0  0  0
   38.1059   37.0747   14.6730 F   0  0  0  0  0  0
  1  2  1  0  0  0
  1 10  1  0  0  0
  1 27  1  0  0  0
  1 28  1  0  0  0
  2  6  1  0  0  0
  2 29  1  0  0  0
  2 30  1  0  0  0
  3  4  1  0  0  0
  3  6  1  0  0  0
  3 31  1  0  0  0
  3 32  1  0  0  0
  4 10  1  0  0  0
  4 33  1  0  0  0
  4 34  1  0  0  0
  5  8  1  0  0  0
  5 35  1  0  0  0
  5 47  2  0  0  0
  7 17  1  0  0  0
  7 23  2  0  0  0
  7 24  1  0  0  0
  8 18  2  0  0  0
  8 20  1  0  0  0
  9 22  1  0  0  0
  9 25  2  0  0  0
  9 26  1  0  0  0
 10 26  1  0  0  0
 10 36  1  0  0  0
 11 12  1  0  0  0
 11 15  2  0  0  0
 11 16  1  0  0  0
 12 17  2  0  0  0
 12 37  1  0  0  0
 13 14  2  0  0  0
 13 38  1  0  0  0
 13 47  1  0  0  0
 14 18  1  0  0  0
 14 39  1  0  0  0
 15 24  1  0  0  0
 15 25  1  0  0  0
 16 22  2  0  0  0
 16 40  1  0  0  0
 17 21  1  0  0  0
 18 21  1  0  0  0
 19 24  1  0  0  0
 19 41  1  0  0  0
 19 42  1  0  0  0
 19 43  1  0  0  0
 21 45  1  0  0  0
 21 46  1  0  0  0
 26 44  1  0  0  0
 47 48  1  0  0  0
M  END
> <s_m_entry_id>
278

> <s_m_entry_name>
p38_p38a_2j.1

> <r_user_dG.exp>
-10.081

> <r_m_Molecular_weight>
386.4048

> <s_m_Source_Path>
C:\Users\yujiethinkpad\Desktop\05A\p38

> <s_m_Source_File>
p38_p38a_2j.sdf

> <i_m_Source_File_Index>
1

> <s_m_job_name>
align_ligands_5440

> <i_phase_Input_Structure_Number>
20

> <i_phase_Structure_Number>
20

> <r_phase_Similarity_to_Reference>
0.845312892990366

> <i_phase_Reference_Structure>
1

> <s_phase_Alignment_Method>
snapped core

> <s_phase_Alignment_Reason>


> <s_phase_Core_SMARTS>
a1aaaa(a12)aa(a(=A)[a]2)Aa3aaaaa3

> <s_f3d_frozen_atoms>
25 9 22 16 11 15 12 17 7 23 24 21 18 14 13 47 5 8 40 37 23 45 46 39 38 48 35 20

> <s_m_subgroup_title>
align_ligands_5440

> <s_m_subgroupid>
align_ligands_5440

> <b_m_subgroup_collapsed>
0

$$$$
