p38a_2h
                    3D
 Schrodinger Suite 2021-2.
 46 49  0  0  1  0            999 V2000
   31.3938   39.8918   26.5278 C   0  0  0  0  0  0
   32.4677   40.4299   27.4927 C   0  0  0  0  0  0
   33.8740   38.5143   27.1414 C   0  0  0  0  0  0
   32.8686   37.8829   26.1594 C   0  0  0  0  0  0
   38.4546   36.2907   16.9050 C   0  0  0  0  0  0
   33.1817   39.3396   28.0831 O   0  0  0  0  0  0
   34.4447   34.9756   21.1750 C   0  0  0  0  0  0
   37.9298   35.7644   18.1009 C   0  0  0  0  0  0
   33.5129   39.0602   23.4449 C   0  0  0  0  0  0
   32.0056   38.9549   25.4727 C   0  0  0  0  0  0
   34.7673   37.8067   21.4344 C   0  0  0  0  0  0
   35.4879   37.0641   20.4088 C   0  0  0  0  0  0
   37.5991   36.5714   15.8235 C   0  0  0  0  0  0
   36.2188   36.3240   15.9401 C   0  0  0  0  0  0
   35.6906   35.7958   17.1347 C   0  0  0  0  0  0
   33.9268   37.0956   22.3121 C   0  0  0  0  0  0
   34.8814   39.1982   21.6290 C   0  0  0  0  0  0
   35.3426   35.7252   20.2878 C   0  0  0  0  0  0
   36.5461   35.5225   18.2256 C   0  0  0  0  0  0
   32.8343   34.9845   23.0223 C   0  0  0  0  0  0
   38.7610   35.4926   19.1356 F   0  0  0  0  0  0
   36.0782   34.9777   19.3973 S   0  0  0  0  0  0
   34.2455   39.8238   22.6409 N   0  0  0  0  0  0
   34.3186   33.7555   21.0783 O   0  0  0  0  0  0
   33.7619   35.6869   22.1182 N   0  0  0  0  0  0
   33.3145   37.7488   23.3206 N   0  0  0  0  0  0
   32.8287   39.7287   24.5478 N   0  0  0  0  0  0
   30.6376   39.3537   27.1019 H   0  0  0  0  0  0
   30.8755   40.7214   26.0447 H   0  0  0  0  0  0
   33.1587   41.0980   26.9739 H   0  0  0  0  0  0
   32.0018   41.0204   28.2829 H   0  0  0  0  0  0
   34.4141   37.7345   27.6803 H   0  0  0  0  0  0
   34.6263   39.0989   26.6073 H   0  0  0  0  0  0
   33.3974   37.2862   25.4147 H   0  0  0  0  0  0
   32.2266   37.1892   26.7050 H   0  0  0  0  0  0
   39.5096   36.4984   16.8255 H   0  0  0  0  0  0
   31.2229   38.4909   24.8692 H   0  0  0  0  0  0
   36.1732   37.6249   19.7928 H   0  0  0  0  0  0
   35.5592   36.5308   15.1104 H   0  0  0  0  0  0
   34.6340   35.5837   17.2046 H   0  0  0  0  0  0
   35.5055   39.8015   20.9882 H   0  0  0  0  0  0
   31.9109   35.5506   23.1491 H   0  0  0  0  0  0
   32.5319   33.9955   22.6752 H   0  0  0  0  0  0
   33.2904   34.8642   24.0058 H   0  0  0  0  0  0
   32.9271   40.7512   24.6742 H   0  0  0  0  0  0
   37.9953   36.9827   14.9068 H   0  0  0  0  0  0
  1  2  1  0  0  0
  1 10  1  0  0  0
  1 28  1  0  0  0
  1 29  1  0  0  0
  2  6  1  0  0  0
  2 30  1  0  0  0
  2 31  1  0  0  0
  3  4  1  0  0  0
  3  6  1  0  0  0
  3 32  1  0  0  0
  3 33  1  0  0  0
  4 10  1  0  0  0
  4 34  1  0  0  0
  4 35  1  0  0  0
  5  8  1  0  0  0
  5 13  2  0  0  0
  5 36  1  0  0  0
  7 18  1  0  0  0
  7 24  2  0  0  0
  7 25  1  0  0  0
  8 19  2  0  0  0
  8 21  1  0  0  0
  9 23  1  0  0  0
  9 26  2  0  0  0
  9 27  1  0  0  0
 10 27  1  0  0  0
 10 37  1  0  0  0
 11 12  1  0  0  0
 11 16  2  0  0  0
 11 17  1  0  0  0
 12 18  2  0  0  0
 12 38  1  0  0  0
 13 14  1  0  0  0
 13 46  1  0  0  0
 14 15  2  0  0  0
 14 39  1  0  0  0
 15 19  1  0  0  0
 15 40  1  0  0  0
 16 25  1  0  0  0
 16 26  1  0  0  0
 17 23  2  0  0  0
 17 41  1  0  0  0
 18 22  1  0  0  0
 19 22  1  0  0  0
 20 25  1  0  0  0
 20 42  1  0  0  0
 20 43  1  0  0  0
 20 44  1  0  0  0
 27 45  1  0  0  0
M  END
> <s_m_entry_id>
276

> <s_m_entry_name>
p38_p38a_2h.1

> <r_user_dG.exp>
-9.477

> <r_m_Molecular_weight>
386.45128

> <s_m_Source_Path>
C:\Users\yujiethinkpad\Desktop\05A\p38

> <s_m_Source_File>
p38_p38a_2h.sdf

> <i_m_Source_File_Index>
1

> <s_m_job_name>
align_ligands_5440

> <i_phase_Input_Structure_Number>
18

> <i_phase_Structure_Number>
18

> <r_phase_Similarity_to_Reference>
0.864822039474593

> <i_phase_Reference_Structure>
1

> <s_phase_Alignment_Method>
snapped core

> <s_phase_Alignment_Reason>


> <s_phase_Core_SMARTS>
a1aaaa(a12)aa(a(=A)[a]2)Aa3aaaaa3

> <s_f3d_frozen_atoms>
26 9 23 17 11 16 12 18 7 24 25 22 19 15 14 13 5 8 41 38 24 40 39 46 36 21

> <s_m_subgroup_title>
align_ligands_5440

> <s_m_subgroupid>
align_ligands_5440

> <b_m_subgroup_collapsed>
0

$$$$
