p38a_2n
                    3D
 Schrodinger Suite 2021-2.
 53 56  0  0  1  0            999 V2000
   38.4546   36.2907   16.9050 C   0  0  0  0  0  0
   34.4447   34.9756   21.1750 C   0  0  0  0  0  0
   37.9298   35.7644   18.1009 C   0  0  0  0  0  0
   33.5129   39.0602   23.4449 C   0  0  0  0  0  0
   34.7673   37.8067   21.4344 C   0  0  0  0  0  0
   35.4879   37.0641   20.4088 C   0  0  0  0  0  0
   37.5991   36.5714   15.8235 C   0  0  0  0  0  0
   36.2188   36.3240   15.9401 C   0  0  0  0  0  0
   35.6906   35.7958   17.1347 C   0  0  0  0  0  0
   33.9268   37.0956   22.3121 C   0  0  0  0  0  0
   34.8814   39.1982   21.6290 C   0  0  0  0  0  0
   35.3426   35.7252   20.2878 C   0  0  0  0  0  0
   36.5461   35.5225   18.2256 C   0  0  0  0  0  0
   38.7610   35.4926   19.1356 F   0  0  0  0  0  0
   36.0782   34.9777   19.3973 O   0  0  0  0  0  0
   34.2455   39.8238   22.6409 N   0  0  0  0  0  0
   34.3186   33.7555   21.0783 O   0  0  0  0  0  0
   33.7619   35.6869   22.1182 N   0  0  0  0  0  0
   33.3145   37.7488   23.3206 N   0  0  0  0  0  0
   32.8287   39.7287   24.5478 N   0  0  0  0  0  0
   39.5095   36.4983   16.8254 H   0  0  0  0  0  0
   36.1732   37.6249   19.7928 H   0  0  0  0  0  0
   35.5592   36.5308   15.1103 H   0  0  0  0  0  0
   34.6339   35.5838   17.2047 H   0  0  0  0  0  0
   35.5055   39.8015   20.9882 H   0  0  0  0  0  0
   32.9271   40.7511   24.6742 H   0  0  0  0  0  0
   38.1059   37.0747   14.6730 F   0  0  0  0  0  0
   32.4677   40.4297   27.4927 C   0  0  0  0  0  0
   31.3938   39.8917   26.5278 C   0  0  0  0  0  0
   32.0056   38.9548   25.4727 C   0  0  0  0  0  0
   32.8686   37.8828   26.1593 C   0  0  0  0  0  0
   33.8740   38.5142   27.1414 C   0  0  0  0  0  0
   33.1817   39.3394   28.0831 O   0  0  0  0  0  0
   32.0018   41.0202   28.2830 H   0  0  0  0  0  0
   33.1587   41.0979   26.9740 H   0  0  0  0  0  0
   30.8755   40.7213   26.0447 H   0  0  0  0  0  0
   30.6376   39.3536   27.1019 H   0  0  0  0  0  0
   31.2229   38.4909   24.8692 H   0  0  0  0  0  0
   32.2267   37.1891   26.7049 H   0  0  0  0  0  0
   33.3974   37.2861   25.4146 H   0  0  0  0  0  0
   34.4141   37.7344   27.6803 H   0  0  0  0  0  0
   34.6263   39.0988   26.6073 H   0  0  0  0  0  0
   32.8756   34.9665   23.0277 C   0  0  0  0  0  0
   32.9015   33.9024   22.7932 H   0  0  0  0  0  0
   33.2061   35.1204   24.0549 H   0  0  0  0  0  0
   31.4747   35.4791   22.8710 C   0  0  0  0  0  0
   30.8130   34.9413   23.5500 H   0  0  0  0  0  0
   31.4488   36.5433   23.1054 H   0  0  0  0  0  0
   31.0199   35.2673   21.4574 C   0  0  0  0  0  0
   31.6816   35.8051   20.7784 H   0  0  0  0  0  0
   31.0458   34.2031   21.2230 H   0  0  0  0  0  0
   29.7310   35.7389   21.3133 O   0  0  0  0  0  0
   29.3441   35.6381   20.3967 H   0  0  0  0  0  0
  1  3  1  0  0  0
  1  7  2  0  0  0
  1 21  1  0  0  0
  2 12  1  0  0  0
  2 17  2  0  0  0
  2 18  1  0  0  0
  3 13  2  0  0  0
  3 14  1  0  0  0
  4 16  1  0  0  0
  4 19  2  0  0  0
  4 20  1  0  0  0
  5  6  1  0  0  0
  5 10  2  0  0  0
  5 11  1  0  0  0
  6 12  2  0  0  0
  6 22  1  0  0  0
  7  8  1  0  0  0
  7 27  1  0  0  0
  8  9  2  0  0  0
  8 23  1  0  0  0
  9 13  1  0  0  0
  9 24  1  0  0  0
 10 18  1  0  0  0
 10 19  1  0  0  0
 11 16  2  0  0  0
 11 25  1  0  0  0
 12 15  1  0  0  0
 13 15  1  0  0  0
 18 43  1  0  0  0
 20 26  1  0  0  0
 20 30  1  0  0  0
 28 29  1  0  0  0
 28 33  1  0  0  0
 28 34  1  0  0  0
 28 35  1  0  0  0
 29 30  1  0  0  0
 29 36  1  0  0  0
 29 37  1  0  0  0
 30 31  1  0  0  0
 30 38  1  0  0  0
 31 32  1  0  0  0
 31 39  1  0  0  0
 31 40  1  0  0  0
 32 33  1  0  0  0
 32 41  1  0  0  0
 32 42  1  0  0  0
 43 44  1  0  0  0
 43 45  1  0  0  0
 43 46  1  0  0  0
 46 47  1  0  0  0
 46 48  1  0  0  0
 46 49  1  0  0  0
 49 50  1  0  0  0
 49 51  1  0  0  0
 49 52  1  0  0  0
 52 53  1  0  0  0
M  END
> <s_m_entry_id>
282

> <s_m_entry_name>
p38_p38a_2n.1

> <r_user_dG.exp>
-11.854

> <r_m_Molecular_weight>
432.43069

> <s_m_Source_Path>
C:\Users\yujiethinkpad\Desktop\05A\p38

> <s_m_Source_File>
p38_p38a_2n.sdf

> <i_m_Source_File_Index>
1

> <s_m_job_name>
align_ligands_5440

> <i_phase_Input_Structure_Number>
24

> <i_phase_Structure_Number>
24

> <r_phase_Similarity_to_Reference>
0.808826781448042

> <i_phase_Reference_Structure>
1

> <s_phase_Alignment_Method>
snapped core

> <s_phase_Alignment_Reason>


> <s_phase_Core_SMARTS>
a1aaaa(a12)aa(a(=A)[a]2)Aa3aaaaa3

> <s_f3d_frozen_atoms>
19 4 16 11 5 10 6 12 2 17 18 15 13 9 8 7 1 3 25 22 17 24 23 27 21 14

> <s_m_subgroup_title>
align_ligands_5440

> <s_m_subgroupid>
align_ligands_5440

> <b_m_subgroup_collapsed>
0

$$$$
