p38a_3flz
                    3D
 Schrodinger Suite 2021-2.
 46 49  0  0  1  0            999 V2000
   36.0782   34.9777   19.3973 O   0  0  0  0  0  0
   35.4879   37.0641   20.4088 C   0  0  0  0  0  0
   33.9268   37.0956   22.3121 C   0  0  0  0  0  0
   34.7673   37.8067   21.4344 C   0  0  0  0  0  0
   34.8814   39.1982   21.6290 C   0  0  0  0  0  0
   33.5129   39.0602   23.4449 C   0  0  0  0  0  0
   35.3426   35.7252   20.2878 C   0  0  0  0  0  0
   36.5461   35.5225   18.2256 C   0  0  0  0  0  0
   32.8343   34.9845   23.0223 C   0  0  0  0  0  0
   32.8688   37.8826   26.1593 C   0  0  0  0  0  0
   37.9298   35.7644   18.1009 C   0  0  0  0  0  0
   37.5991   36.5714   15.8235 C   0  0  0  0  0  0
   38.4546   36.2907   16.9050 C   0  0  0  0  0  0
   36.2188   36.3240   15.9401 C   0  0  0  0  0  0
   34.3186   33.7555   21.0783 O   0  0  0  0  0  0
   34.4447   34.9756   21.1750 C   0  0  0  0  0  0
   35.6906   35.7958   17.1347 C   0  0  0  0  0  0
   34.2455   39.8238   22.6409 N   0  0  0  0  0  0
   33.7619   35.6869   22.1182 N   0  0  0  0  0  0
   33.3145   37.7488   23.3206 N   0  0  0  0  0  0
   32.8289   39.7286   24.5480 N   0  0  0  0  0  0
   32.0058   38.9547   25.4728 C   0  0  0  0  0  0
   31.3942   39.8916   26.5281 C   0  0  0  0  0  0
   32.4683   40.4294   27.4930 C   0  0  0  0  0  0
   33.1823   39.3389   28.0832 O   0  0  0  0  0  0
   33.8744   38.5137   27.1413 C   0  0  0  0  0  0
   36.1549   37.6283   19.7766 H   0  0  0  0  0  0
   35.5060   39.8017   20.9893 H   0  0  0  0  0  0
   32.5319   33.9955   22.6752 H   0  0  0  0  0  0
   33.2904   34.8642   24.0058 H   0  0  0  0  0  0
   31.9109   35.5506   23.1491 H   0  0  0  0  0  0
   32.2268   37.1889   26.7048 H   0  0  0  0  0  0
   33.3974   37.2859   25.4144 H   0  0  0  0  0  0
   38.5896   35.5540   18.9278 H   0  0  0  0  0  0
   38.0036   36.9702   14.9061 H   0  0  0  0  0  0
   39.5150   36.4778   16.8165 H   0  0  0  0  0  0
   35.5617   36.5320   15.1099 H   0  0  0  0  0  0
   34.6316   35.6017   17.2191 H   0  0  0  0  0  0
   32.9275   40.7510   24.6745 H   0  0  0  0  0  0
   31.2230   38.4910   24.8694 H   0  0  0  0  0  0
   30.8760   40.7213   26.0452 H   0  0  0  0  0  0
   30.6381   39.3535   27.1023 H   0  0  0  0  0  0
   33.1593   41.0975   26.9743 H   0  0  0  0  0  0
   32.0026   41.0198   28.2834 H   0  0  0  0  0  0
   34.4144   37.7338   27.6800 H   0  0  0  0  0  0
   34.6267   39.0983   26.6072 H   0  0  0  0  0  0
  1  7  1  0  0  0
  1  8  1  0  0  0
  2  4  1  0  0  0
  2  7  2  0  0  0
  2 27  1  0  0  0
  3  4  2  0  0  0
  3 19  1  0  0  0
  3 20  1  0  0  0
  4  5  1  0  0  0
  5 18  2  0  0  0
  5 28  1  0  0  0
  6 18  1  0  0  0
  6 20  2  0  0  0
  6 21  1  0  0  0
  7 16  1  0  0  0
  8 11  1  0  0  0
  8 17  2  0  0  0
  9 19  1  0  0  0
  9 29  1  0  0  0
  9 30  1  0  0  0
  9 31  1  0  0  0
 10 22  1  0  0  0
 10 26  1  0  0  0
 10 32  1  0  0  0
 10 33  1  0  0  0
 11 13  2  0  0  0
 11 34  1  0  0  0
 12 13  1  0  0  0
 12 14  2  0  0  0
 12 35  1  0  0  0
 13 36  1  0  0  0
 14 17  1  0  0  0
 14 37  1  0  0  0
 15 16  2  0  0  0
 16 19  1  0  0  0
 17 38  1  0  0  0
 21 22  1  0  0  0
 21 39  1  0  0  0
 22 23  1  0  0  0
 22 40  1  0  0  0
 23 24  1  0  0  0
 23 41  1  0  0  0
 23 42  1  0  0  0
 24 25  1  0  0  0
 24 43  1  0  0  0
 24 44  1  0  0  0
 25 26  1  0  0  0
 26 45  1  0  0  0
 26 46  1  0  0  0
M  END
> <s_m_entry_id>
264

> <s_m_entry_name>
p38_p38a_3flz.1

> <r_user_dG.exp>
-9.4871

> <r_m_Molecular_weight>
352.39625

> <s_m_Source_Path>
C:\Users\yujiethinkpad\Desktop\05A\p38

> <s_m_Source_File>
p38_p38a_3flz.sdf

> <i_m_Source_File_Index>
1

> <s_m_job_name>
align_ligands_5440

> <i_phase_Input_Structure_Number>
6

> <i_phase_Structure_Number>
6

> <r_phase_Similarity_to_Reference>
0.879052828102294

> <i_phase_Reference_Structure>
1

> <s_phase_Alignment_Method>
snapped core

> <s_phase_Alignment_Reason>


> <s_phase_Core_SMARTS>
a1aaaa(a12)aa(a(=A)[a]2)Aa3aaaaa3

> <s_f3d_frozen_atoms>
20 6 18 5 4 3 2 7 16 15 19 1 8 17 14 12 13 11 28 27 15 38 37 35 36 34

> <s_m_subgroup_title>
align_ligands_5440

> <s_m_subgroupid>
align_ligands_5440

> <b_m_subgroup_collapsed>
0

$$$$
