p38a_2x
                    3D
 Schrodinger Suite 2021-2.
 43 46  0  0  1  0            999 V2000
   38.4546   36.2907   16.9050 C   0  0  0  0  0  0
   34.4447   34.9756   21.1750 C   0  0  0  0  0  0
   37.9298   35.7644   18.1009 C   0  0  0  0  0  0
   33.5129   39.0602   23.4449 C   0  0  0  0  0  0
   34.7673   37.8067   21.4344 C   0  0  0  0  0  0
   35.4879   37.0641   20.4088 C   0  0  0  0  0  0
   37.5991   36.5714   15.8235 C   0  0  0  0  0  0
   36.2188   36.3240   15.9401 C   0  0  0  0  0  0
   35.6906   35.7958   17.1347 C   0  0  0  0  0  0
   33.9268   37.0956   22.3121 C   0  0  0  0  0  0
   34.8814   39.1982   21.6290 C   0  0  0  0  0  0
   35.3426   35.7252   20.2878 C   0  0  0  0  0  0
   36.5461   35.5225   18.2256 C   0  0  0  0  0  0
   32.8343   34.9845   23.0223 C   0  0  0  0  0  0
   38.7610   35.4926   19.1356 F   0  0  0  0  0  0
   36.0782   34.9777   19.3973 O   0  0  0  0  0  0
   34.2455   39.8238   22.6409 N   0  0  0  0  0  0
   34.3186   33.7555   21.0783 O   0  0  0  0  0  0
   33.7619   35.6869   22.1182 N   0  0  0  0  0  0
   33.3145   37.7488   23.3206 N   0  0  0  0  0  0
   32.8287   39.7287   24.5478 N   0  0  0  0  0  0
   39.5095   36.4983   16.8254 H   0  0  0  0  0  0
   36.1732   37.6249   19.7928 H   0  0  0  0  0  0
   35.5592   36.5308   15.1103 H   0  0  0  0  0  0
   34.6339   35.5838   17.2047 H   0  0  0  0  0  0
   35.5055   39.8015   20.9882 H   0  0  0  0  0  0
   31.9109   35.5506   23.1491 H   0  0  0  0  0  0
   32.5319   33.9955   22.6752 H   0  0  0  0  0  0
   33.2904   34.8642   24.0058 H   0  0  0  0  0  0
   32.9271   40.7511   24.6742 H   0  0  0  0  0  0
   38.1059   37.0747   14.6730 F   0  0  0  0  0  0
   32.5173   39.8802   27.5550 O   0  0  0  0  0  0
   33.5109   38.8848   27.2803 C   0  0  0  0  0  0
   32.8499   37.9740   26.2532 C   0  0  0  0  0  0
   32.0056   38.9548   25.4727 C   0  0  1  0  0  0
   31.4675   39.8536   26.5797 C   0  0  0  0  0  0
   33.8135   38.3502   28.1821 H   0  0  0  0  0  0
   34.3974   39.3671   26.8633 H   0  0  0  0  0  0
   33.5746   37.4403   25.6363 H   0  0  0  0  0  0
   32.2238   37.2311   26.7522 H   0  0  0  0  0  0
   31.2122   38.4783   24.8946 H   0  0  0  0  0  0
   30.5706   39.4249   27.0310 H   0  0  0  0  0  0
   31.2171   40.8537   26.2220 H   0  0  0  0  0  0
  1  3  1  0  0  0
  1  7  2  0  0  0
  1 22  1  0  0  0
  2 12  1  0  0  0
  2 18  2  0  0  0
  2 19  1  0  0  0
  3 13  2  0  0  0
  3 15  1  0  0  0
  4 17  1  0  0  0
  4 20  2  0  0  0
  4 21  1  0  0  0
  5  6  1  0  0  0
  5 10  2  0  0  0
  5 11  1  0  0  0
  6 12  2  0  0  0
  6 23  1  0  0  0
  7  8  1  0  0  0
  7 31  1  0  0  0
  8  9  2  0  0  0
  8 24  1  0  0  0
  9 13  1  0  0  0
  9 25  1  0  0  0
 10 19  1  0  0  0
 10 20  1  0  0  0
 11 17  2  0  0  0
 11 26  1  0  0  0
 12 16  1  0  0  0
 13 16  1  0  0  0
 14 19  1  0  0  0
 14 27  1  0  0  0
 14 28  1  0  0  0
 14 29  1  0  0  0
 21 30  1  0  0  0
 21 35  1  0  0  0
 32 33  1  0  0  0
 32 36  1  0  0  0
 33 34  1  0  0  0
 33 37  1  0  0  0
 33 38  1  0  0  0
 34 35  1  0  0  0
 34 39  1  0  0  0
 34 40  1  0  0  0
 35 36  1  0  0  0
 35 41  1  0  0  0
 36 42  1  0  0  0
 36 43  1  0  0  0
M  END
> <s_m_entry_id>
291

> <s_m_entry_name>
p38_p38a_2x.1

> <r_user_dG.exp>
-10.232

> <r_m_Molecular_weight>
374.35002

> <s_m_Source_Path>
C:\Users\yujiethinkpad\Desktop\05A\p38

> <s_m_Source_File>
p38_p38a_2x.sdf

> <i_m_Source_File_Index>
1

> <s_m_job_name>
align_ligands_5440

> <i_phase_Input_Structure_Number>
33

> <i_phase_Structure_Number>
33

> <r_phase_Similarity_to_Reference>
0.928129137056859

> <i_phase_Reference_Structure>
1

> <s_phase_Alignment_Method>
snapped core

> <s_phase_Alignment_Reason>


> <s_phase_Core_SMARTS>
a1aaaa(a12)aa(a(=A)[a]2)Aa3aaaaa3

> <s_f3d_frozen_atoms>
20 4 17 11 5 10 6 12 2 18 19 16 13 9 8 7 1 3 26 23 18 25 24 31 22 15

> <s_m_subgroup_title>
align_ligands_5440

> <s_m_subgroupid>
align_ligands_5440

> <b_m_subgroup_collapsed>
0

$$$$
