p38a_3fly
                    3D
 Schrodinger Suite 2021-2.
 41 43  0  0  1  0            999 V2000
   34.8814   39.1982   21.6290 C   0  0  0  0  0  0
   33.9268   37.0956   22.3121 C   0  0  0  0  0  0
   34.2455   39.8238   22.6409 N   0  0  0  0  0  0
   34.7673   37.8067   21.4344 C   0  0  0  0  0  0
   35.4879   37.0641   20.4088 C   0  0  0  0  0  0
   35.3426   35.7252   20.2878 C   0  0  0  0  0  0
   34.4447   34.9756   21.1750 C   0  0  0  0  0  0
   33.5129   39.0602   23.4449 C   0  0  0  0  0  0
   32.4342   38.9716   25.7018 C   0  0  0  0  0  0
   33.5344   38.2200   26.4701 C   0  0  0  0  0  0
   31.5855   39.8767   26.6030 C   0  0  0  0  0  0
   36.5461   35.5225   18.2256 C   0  0  0  0  0  0
   35.6906   35.7958   17.1347 C   0  0  0  0  0  0
   36.2188   36.3240   15.9401 C   0  0  0  0  0  0
   37.5991   36.5714   15.8235 C   0  0  0  0  0  0
   38.4546   36.2907   16.9050 C   0  0  0  0  0  0
   37.9298   35.7644   18.1009 C   0  0  0  0  0  0
   38.1059   37.0747   14.6730 F   0  0  0  0  0  0
   38.7610   35.4926   19.1356 F   0  0  0  0  0  0
   36.0782   34.9777   19.3973 O   0  0  0  0  0  0
   34.3186   33.7555   21.0783 O   0  0  0  0  0  0
   33.7619   35.6869   22.1182 N   0  0  0  0  0  0
   32.8343   34.9845   23.0223 C   0  0  0  0  0  0
   33.3145   37.7488   23.3206 N   0  0  0  0  0  0
   32.9561   39.6844   24.5417 N   0  0  0  0  0  0
   35.5044   39.8070   20.9903 H   0  0  0  0  0  0
   36.1739   37.6186   19.7843 H   0  0  0  0  0  0
   31.7612   38.2260   25.3090 H   0  0  0  0  0  0
   33.1743   37.8529   27.4314 H   0  0  0  0  0  0
   34.4057   38.8430   26.6399 H   0  0  0  0  0  0
   33.8789   37.3498   25.9112 H   0  0  0  0  0  0
   31.2700   39.3594   27.5103 H   0  0  0  0  0  0
   32.1085   40.7884   26.8866 H   0  0  0  0  0  0
   30.6787   40.1841   26.0808 H   0  0  0  0  0  0
   34.6319   35.5952   17.2085 H   0  0  0  0  0  0
   35.5673   36.5299   15.1043 H   0  0  0  0  0  0
   39.5144   36.4757   16.8161 H   0  0  0  0  0  0
   32.5319   33.9955   22.6752 H   0  0  0  0  0  0
   33.2904   34.8642   24.0058 H   0  0  0  0  0  0
   31.9109   35.5506   23.1491 H   0  0  0  0  0  0
   32.8932   40.6987   24.5191 H   0  0  0  0  0  0
  1  3  2  0  0  0
  1  4  1  0  0  0
  1 26  1  0  0  0
  2  4  2  0  0  0
  2 22  1  0  0  0
  2 24  1  0  0  0
  3  8  1  0  0  0
  4  5  1  0  0  0
  5  6  2  0  0  0
  5 27  1  0  0  0
  6  7  1  0  0  0
  6 20  1  0  0  0
  7 21  2  0  0  0
  7 22  1  0  0  0
  8 24  2  0  0  0
  8 25  1  0  0  0
  9 10  1  0  0  0
  9 11  1  0  0  0
  9 25  1  0  0  0
  9 28  1  0  0  0
 10 29  1  0  0  0
 10 30  1  0  0  0
 10 31  1  0  0  0
 11 32  1  0  0  0
 11 33  1  0  0  0
 11 34  1  0  0  0
 12 13  2  0  0  0
 12 17  1  0  0  0
 12 20  1  0  0  0
 13 14  1  0  0  0
 13 35  1  0  0  0
 14 15  2  0  0  0
 14 36  1  0  0  0
 15 16  1  0  0  0
 15 18  1  0  0  0
 16 17  2  0  0  0
 16 37  1  0  0  0
 17 19  1  0  0  0
 22 23  1  0  0  0
 23 38  1  0  0  0
 23 39  1  0  0  0
 23 40  1  0  0  0
 25 41  1  0  0  0
M  END
> <i_m_stars>
0

> <s_m_entry_id>
259

> <s_m_entry_name>
Structure4

> <s_m_Source_Path>
C:\Users\yujiethinkpad\Desktop\05A\p38\glide-dock_SP_co

> <s_m_Source_File>
glide-dock_SP_co_pv.maegz

> <i_m_Source_File_Index>
17

> <s_pdb_PDB_TITLE>
P38 KINASE CRYSTAL STRUCTURE IN COMPLEX WITH 6-(2,4-DIFLUORO-PHENOXY)- 2-ISOPROPYLAMINO-8-METHYL-8H-PYRIDO[2,3-D]PYRIMIDIN-7-ONE

> <s_pdb_PDB_ID>
3FLY

> <r_pdb_PDB_CRYST1_a>
45.465

> <r_pdb_PDB_CRYST1_b>
85.791

> <r_pdb_PDB_CRYST1_c>
124.911

> <r_pdb_PDB_CRYST1_alpha>
90

> <r_pdb_PDB_CRYST1_beta>
90

> <r_pdb_PDB_CRYST1_gamma>
90

> <s_pdb_PDB_CRYST1_Space_Group>
P 21 21 21

> <i_pdb_PDB_CRYST1_z>
4

> <s_pdb_PDB_CLASSIFICATION>
SIGNALING PROTEIN, TRANSFERASE

> <s_pdb_PDB_DEPOSITION_DATE>
19-DEC-08

> <s_pdb_PDB_format_version>
3.30

> <r_pdb_PDB_R>
0.22

> <r_pdb_PDB_Rfree>
0.245

> <r_pdb_PDB_RESOLUTION>
1.8

> <s_pdb_PDB_EXPDTA>
X-RAY DIFFRACTION

> <r_pdb_PDB_EXPDTA_TEMPERATURE>
100

> <r_pdb_PDB_EXPDTA_PH>
7.6

> <s_pdb_PDB_REMARK_350_Biomolecule_1_Transform_1_Chains>
A

> <s_pdb_PDB_REMARK_350_Biomolecule_1_Transform_1_Matrix_1>
1.000000 0.000000 0.000000   0.000000;0.000000 1.000000 0.000000   0.000000;0.000000 0.000000 1.000000   0.000000

> <s_ppw_entry_id_backup>
2

> <b_ppw_prepared>
1

> <s_ppw_prepared_with_version>
2021-2

> <b_ppw_assigned_bond_orders>
1

> <b_ppw_added_hydrogens>
1

> <b_ppw_treated_metals>
1

> <b_ppw_created_disulfur>
1

> <s_ppw_het_states>
eJxdkj1zwjAMhv+KzzO0lhryARtT117HXoYcZWqaMKRDj+O/Y0kxr02m10/kPJacqye/d1/x4TbwxoV+4yS+IVaIO8QasUFsEbtHpIBIiLARbAQbwUawEWwEG8HGsDFsDBvDxrAxbKw2yetQbAi8NmYglhNmZYBzIJqigrMtlW7pAHYKaoBaQYOPNgpaVCiQFgnDt0a5ANk5unQOLgC0clV2SyXgJ5Bv0eYIA1pB+1SRnVSL9X4T0PblltM3tH25ayoAJkZNsqQt1m14VLBpKwGRbMNLfHf1Mv34y9vSyzjiKi5usVrR5zIsZ3c5T8O4/FthcD+nYXz9nceDe98e5+nbnea/adk7PriPuN33/e0OpkSypA==

> <i_lp_mmshare_version>
54117

> <s_epik_input>
W0NIM11bQ0hdKFtDSDNdKVtOSF1jKG4xKW5bY0hdYyhjMTIpW2NIXWMoYyg9TyluMltDSDNdKU9jM1tjSF1bY0hdYyhGKVtjSF1jM0Y=

> <s_epik_cmdline>
J2VwaWtfcHl0aG9uJywgJy1waCcsICc3LjAnLCAnLXRuJywgJzgnLCAnLW1hJywgJzUwMCcsICctaW1hZScsICc8aW5maWxlLm1hZT4nLCAnLW9tYWUnLCAnPG91dGZpbGUubWFlPic=

> <r_lp_tautomer_probability>
1

> <r_epik_Ionization_Penalty>
  0.0000

> <r_epik_Ionization_Penalty_Charging>
  0.0000

> <r_epik_Ionization_Penalty_Neutral>
  0.0000

> <r_epik_State_Penalty>
  0.0000

> <r_epik_Charging_Adjusted_Penalty>
1.92618610439983e-07

> <i_epik_Tot_Q>
0

> <i_epik_Tot_abs_Q>
0

> <s_epik_Chemistry_Notes>
This compound has an imine and may undergo hydrolysis.

> <i_f3d_flags>
0

> <s_lp_Force_Field>
S-OPLS

> <r_lp_Energy>
48.256022

> <b_lp_Chiralities_Consistent>
1

> <s_lp_Variant>
co-1

> <s_m_job_name>
align_ligands_5440

> <s_i_glide_gridfile>
glide-grid_p38

> <i_i_glide_lignum>
1

> <i_i_glide_rotatable_bonds>
4

> <r_i_docking_score>
-5.19728358747434

> <r_i_glide_ligand_efficiency>
-0.207891343498974

> <r_i_glide_ligand_efficiency_sa>
-0.607877975359675

> <r_i_glide_ligand_efficiency_ln>
-1.23191196025228

> <r_i_glide_gscore>
-5.19728358747434

> <r_i_glide_lipo>
-0.958950958046244

> <r_i_glide_hbond>
-0.407885291150542

> <r_i_glide_metal>
0

> <r_i_glide_rewards>
-2.17820446800929

> <r_i_glide_evdw>
-29.3690547943115

> <r_i_glide_ecoul>
-3.75715661048889

> <r_i_glide_erotb>
0.475486454888892

> <r_i_glide_esite>
-0.0957030938682422

> <r_i_glide_emodel>
56.6324419717568

> <r_i_glide_energy>
-33.1262114048004

> <r_i_glide_einternal>
1.58476686477661

> <i_i_glide_confnum>
2

> <i_i_glide_posenum>
41

> <r_i_glide_eff_state_penalty>
0

> <r_glide_shape_similarity>
0

> <r_m_RMS_In_Place_4>
8.88691530060398

> <r_m_RMSD_4>
0.54399292459948

> <i_phase_Input_Structure_Number>
1

> <i_phase_Structure_Number>
1

> <r_phase_Similarity_to_Reference>
1

> <i_phase_Reference_Structure>
1

> <s_phase_Alignment_Method>


> <s_phase_Alignment_Reason>


> <s_phase_Core_SMARTS>


> <s_m_subgroup_title>
align_ligands_5440

> <s_m_subgroupid>
align_ligands_5440

> <b_m_subgroup_collapsed>
0

$$$$
