CAT-17e
                    3D
 Schrodinger Suite 2021-2.
 46 49  0  0  1  0            999 V2000
   13.8039    6.2787   -2.5949 C   0  0  0  0  0  0
   13.8212    5.0007   -3.1153 O   0  0  0  0  0  0
   14.5903    4.0954   -2.4130 C   0  0  0  0  0  0
   15.2515    4.4881   -1.2461 C   0  0  0  0  0  0
   16.0432    3.5373   -0.5942 N   0  0  0  0  0  0
   16.1612    2.2647   -1.0064 C   0  0  0  0  0  0
   15.4666    1.8646   -2.0832 C   0  0  0  0  0  0
   15.5605    0.4418   -2.4436 C   0  0  0  0  0  0
   15.9991    0.0677   -3.7229 C   0  0  0  0  0  0
   16.0548   -1.2768   -4.1108 C   0  0  0  0  0  0
   15.6488   -2.2740   -3.2135 C   0  0  0  0  0  0
   15.1821   -1.9348   -1.9303 C   0  0  0  0  0  0
   14.5975   -3.0044   -1.0099 C   0  0  1  0  0  0
   14.7807   -4.4007   -1.5266 C   0  0  0  0  0  0
   16.0123   -5.1754   -1.1156 C   0  0  0  0  0  0
   14.6586   -5.5581   -0.5615 C   0  0  0  0  0  0
   15.0991   -2.8512    0.3214 N   0  3  0  0  0  0
   14.1199   -2.6862    1.1157 C   0  0  0  0  0  0
   14.1850   -2.6714    2.4561 N   0  0  0  0  0  0
   12.9079   -2.5542    0.5255 N   0  0  0  0  0  0
   11.7045   -2.0722    1.1755 C   0  0  0  0  0  0
   13.1152   -2.6917   -0.7640 C   0  0  0  0  0  0
   12.2689   -2.5634   -1.6453 O   0  0  0  0  0  0
   15.1720   -0.5705   -1.5502 C   0  0  0  0  0  0
   14.6947    2.7621   -2.8337 C   0  0  0  0  0  0
   13.1733    6.9153   -3.2157 H   0  0  0  0  0  0
   13.4067    6.2526   -1.5802 H   0  0  0  0  0  0
   14.8181    6.6778   -2.5779 H   0  0  0  0  0  0
   15.1498    5.4840   -0.8435 H   0  0  0  0  0  0
   16.8570    1.6704   -0.4339 H   0  0  0  0  0  0
   16.2857    0.8143   -4.4468 H   0  0  0  0  0  0
   16.3906   -1.5150   -5.1088 H   0  0  0  0  0  0
   15.7089   -3.2811   -3.5785 H   0  0  0  0  0  0
   14.3982   -4.5187   -2.5427 H   0  0  0  0  0  0
   16.4889   -5.8339   -1.8449 H   0  0  0  0  0  0
   16.7380   -4.6993   -0.4527 H   0  0  0  0  0  0
   14.4400   -5.3489    0.4879 H   0  0  0  0  0  0
   14.1909   -6.4835   -0.9044 H   0  0  0  0  0  0
   16.0964   -2.8692    0.5416 H   0  0  0  0  0  0
   15.1244   -2.6855    2.8564 H   0  0  0  0  0  0
   10.8135   -2.4418    0.6664 H   0  0  0  0  0  0
   11.6271   -2.3670    2.2202 H   0  0  0  0  0  0
   11.6963   -0.9845    1.1076 H   0  0  0  0  0  0
   14.8059   -0.2761   -0.5793 H   0  0  0  0  0  0
   14.1828    2.4651   -3.7310 H   0  0  0  0  0  0
   13.4524   -2.3398    3.0692 H   0  0  0  0  0  0
  1  2  1  0  0  0
  1 26  1  0  0  0
  1 27  1  0  0  0
  1 28  1  0  0  0
  2  3  1  0  0  0
  3  4  2  0  0  0
  3 25  1  0  0  0
  4  5  1  0  0  0
  4 29  1  0  0  0
  5  6  2  0  0  0
  6  7  1  0  0  0
  6 30  1  0  0  0
  7  8  1  0  0  0
  7 25  2  0  0  0
  8  9  2  0  0  0
  8 24  1  0  0  0
  9 10  1  0  0  0
  9 31  1  0  0  0
 10 11  2  0  0  0
 10 32  1  0  0  0
 11 12  1  0  0  0
 11 33  1  0  0  0
 12 13  1  0  0  0
 12 24  2  0  0  0
 13 14  1  0  0  0
 13 17  1  0  0  0
 13 22  1  0  0  0
 14 15  1  0  0  0
 14 16  1  0  0  0
 14 34  1  0  0  0
 15 16  1  0  0  0
 15 35  1  0  0  0
 15 36  1  0  0  0
 16 37  1  0  0  0
 16 38  1  0  0  0
 17 18  2  0  0  0
 17 39  1  0  0  0
 18 19  1  0  0  0
 18 20  1  0  0  0
 19 40  1  0  0  0
 19 46  1  0  0  0
 20 21  1  0  0  0
 20 22  1  0  0  0
 21 41  1  0  0  0
 21 42  1  0  0  0
 21 43  1  0  0  0
 22 23  2  0  0  0
 24 44  1  0  0  0
 25 45  1  0  0  0
M  CHG  1  17   1
M  END
> <s_m_entry_id>
1024

> <s_m_entry_name>
Bace_CAT-17e.1

> <s_m_Source_Path>
C:\Users\yujiethinkpad\Desktop\05A\BACE

> <s_m_Source_File>
Bace_CAT-17e.sdf

> <i_m_Source_File_Index>
1

> <s_m_job_name>
align_ligands_2

> <r_user_dG.exp>
-10.023

> <r_m_Molecular_weight>
337.40482

> <i_phase_Input_Structure_Number>
2

> <i_phase_Structure_Number>
2

> <i_phase_Reference_Structure>
36

> <s_phase_Core_SMARTS>
A=A1AA=[A]A1a2aa(aaa2)-a3aaaaa3

> <s_f3d_frozen_atoms>
23 22 20 18 17 13 12 24 8 9 10 11 7 25 3 4 5 6 23 39 44 31 32 33 45 29 30

> <r_phase_Similarity_to_Reference>
0.82521652399058

> <s_phase_Alignment_Method>
snapped core

> <s_phase_Alignment_Reason>


> <s_m_subgroup_title>
align_ligands_2

> <s_m_subgroupid>
align_ligands_2

> <b_m_subgroup_collapsed>
0

$$$$
