CAT-4a
                    3D
 Schrodinger Suite 2021-2.
 46 49  0  0  1  0            999 V2000
   11.7045   -2.0722    1.1755 C   0  0  0  0  0  0
   12.9079   -2.5542    0.5255 N   0  0  0  0  0  0
   14.1199   -2.6862    1.1157 C   0  0  0  0  0  0
   14.1850   -2.6714    2.4561 N   0  0  0  0  0  0
   15.0991   -2.8512    0.3214 N   0  3  0  0  0  0
   14.5975   -3.0044   -1.0099 C   0  0  2  0  0  0
   14.8593   -4.4740   -1.3790 C   0  0  0  0  0  0
   16.1701   -4.9792   -1.2809 C   0  0  0  0  0  0
   16.4447   -6.3306   -1.5282 C   0  0  0  0  0  0
   15.4120   -7.1998   -1.8773 C   0  0  0  0  0  0
   14.1130   -6.7111   -2.0160 C   0  0  0  0  0  0
   13.8318   -5.3621   -1.7672 C   0  0  0  0  0  0
   15.1821   -1.9348   -1.9303 C   0  0  0  0  0  0
   15.6488   -2.2740   -3.2135 C   0  0  0  0  0  0
   16.0548   -1.2768   -4.1108 C   0  0  0  0  0  0
   15.9991    0.0677   -3.7229 C   0  0  0  0  0  0
   15.5605    0.4418   -2.4436 C   0  0  0  0  0  0
   15.4666    1.8646   -2.0832 C   0  0  0  0  0  0
   14.6947    2.7621   -2.8337 C   0  0  0  0  0  0
   14.5903    4.0954   -2.4130 C   0  0  0  0  0  0
   15.2515    4.4881   -1.2461 C   0  0  0  0  0  0
   16.0432    3.5373   -0.5942 C   0  0  0  0  0  0
   16.1612    2.2647   -1.0064 C   0  0  0  0  0  0
   15.1720   -0.5705   -1.5502 C   0  0  0  0  0  0
   13.1152   -2.6917   -0.7640 C   0  0  0  0  0  0
   12.2689   -2.5634   -1.6453 O   0  0  0  0  0  0
   11.6963   -0.9845    1.1076 H   0  0  0  0  0  0
   10.8135   -2.4418    0.6664 H   0  0  0  0  0  0
   11.6271   -2.3670    2.2202 H   0  0  0  0  0  0
   15.1244   -2.6855    2.8564 H   0  0  0  0  0  0
   16.0782   -2.8748    0.6060 H   0  0  0  0  0  0
   16.9738   -4.3286   -0.9895 H   0  0  0  0  0  0
   17.4546   -6.7013   -1.4213 H   0  0  0  0  0  0
   15.6251   -8.2449   -2.0213 H   0  0  0  0  0  0
   13.3216   -7.3820   -2.3135 H   0  0  0  0  0  0
   12.8143   -5.0269   -1.8589 H   0  0  0  0  0  0
   15.7001   -3.3027   -3.5444 H   0  0  0  0  0  0
   16.3953   -1.5425   -5.1019 H   0  0  0  0  0  0
   16.2997    0.8243   -4.4301 H   0  0  0  0  0  0
   14.1489    2.4151   -3.6986 H   0  0  0  0  0  0
   13.9843    4.7982   -2.9635 H   0  0  0  0  0  0
   15.1438    5.4960   -0.8703 H   0  0  0  0  0  0
   16.5895    3.8067    0.2981 H   0  0  0  0  0  0
   16.7939    1.5653   -0.4895 H   0  0  0  0  0  0
   14.8151   -0.3015   -0.5678 H   0  0  0  0  0  0
   13.4524   -2.3398    3.0692 H   0  0  0  0  0  0
  1  2  1  0  0  0
  1 27  1  0  0  0
  1 28  1  0  0  0
  1 29  1  0  0  0
  2  3  1  0  0  0
  2 25  1  0  0  0
  3  4  1  0  0  0
  3  5  2  0  0  0
  4 30  1  0  0  0
  4 46  1  0  0  0
  5  6  1  0  0  0
  5 31  1  0  0  0
  6  7  1  0  0  0
  6 13  1  0  0  0
  6 25  1  0  0  0
  7  8  2  0  0  0
  7 12  1  0  0  0
  8  9  1  0  0  0
  8 32  1  0  0  0
  9 10  2  0  0  0
  9 33  1  0  0  0
 10 11  1  0  0  0
 10 34  1  0  0  0
 11 12  2  0  0  0
 11 35  1  0  0  0
 12 36  1  0  0  0
 13 14  2  0  0  0
 13 24  1  0  0  0
 14 15  1  0  0  0
 14 37  1  0  0  0
 15 16  2  0  0  0
 15 38  1  0  0  0
 16 17  1  0  0  0
 16 39  1  0  0  0
 17 18  1  0  0  0
 17 24  2  0  0  0
 18 19  2  0  0  0
 18 23  1  0  0  0
 19 20  1  0  0  0
 19 40  1  0  0  0
 20 21  2  0  0  0
 20 41  1  0  0  0
 21 22  1  0  0  0
 21 42  1  0  0  0
 22 23  2  0  0  0
 22 43  1  0  0  0
 23 44  1  0  0  0
 24 45  1  0  0  0
 25 26  2  0  0  0
M  CHG  1   5   1
M  END
> <s_m_entry_id>
1030

> <s_m_entry_name>
Bace_CAT-4a.1

> <s_m_Source_Path>
C:\Users\yujiethinkpad\Desktop\05A\BACE

> <s_m_Source_File>
Bace_CAT-4a.sdf

> <i_m_Source_File_Index>
1

> <s_m_job_name>
align_ligands_2

> <r_user_dG.exp>
-7.933

> <r_m_Molecular_weight>
342.4242

> <i_phase_Input_Structure_Number>
8

> <i_phase_Structure_Number>
8

> <i_phase_Reference_Structure>
36

> <s_phase_Core_SMARTS>
a1aaaaa1A2(A(=A)AA=[A]2)a3aa(aaa3)-a4aaaaa4

> <s_f3d_frozen_atoms>
12 11 10 9 8 7 6 25 26 2 3 5 13 24 17 16 15 14 18 19 20 21 22 23 36 35 34 33 32 26 31 45 39 38 37 40 41 42 43 44

> <r_phase_Similarity_to_Reference>
0.948832293717701

> <s_phase_Alignment_Method>
snapped core

> <s_phase_Alignment_Reason>


> <s_m_subgroup_title>
align_ligands_2

> <s_m_subgroupid>
align_ligands_2

> <b_m_subgroup_collapsed>
0

$$$$
