CAT-4n
                    3D
 Schrodinger Suite 2021-2.
 46 49  0  0  1  0            999 V2000
   11.7045   -2.0722    1.1755 C   0  0  0  0  0  0
   12.9079   -2.5542    0.5255 N   0  0  0  0  0  0
   14.1199   -2.6862    1.1157 C   0  0  0  0  0  0
   14.1850   -2.6714    2.4561 N   0  0  0  0  0  0
   15.0991   -2.8512    0.3214 N   0  3  0  0  0  0
   14.5975   -3.0044   -1.0099 C   0  0  2  0  0  0
   14.8593   -4.4740   -1.3790 C   0  0  0  0  0  0
   16.1701   -4.9792   -1.2809 C   0  0  0  0  0  0
   16.4447   -6.3306   -1.5282 C   0  0  0  0  0  0
   15.4120   -7.1998   -1.8773 C   0  0  0  0  0  0
   14.1130   -6.7111   -2.0160 C   0  0  0  0  0  0
   13.8318   -5.3621   -1.7672 C   0  0  0  0  0  0
   15.1821   -1.9348   -1.9303 C   0  0  0  0  0  0
   15.6488   -2.2740   -3.2135 C   0  0  0  0  0  0
   16.0548   -1.2768   -4.1108 C   0  0  0  0  0  0
   15.9991    0.0677   -3.7229 C   0  0  0  0  0  0
   15.5605    0.4418   -2.4436 C   0  0  0  0  0  0
   15.4666    1.8646   -2.0832 C   0  0  0  0  0  0
   16.1612    2.2647   -1.0064 C   0  0  0  0  0  0
   16.0432    3.5373   -0.5942 N   0  0  0  0  0  0
   15.2515    4.4881   -1.2461 C   0  0  0  0  0  0
   14.5903    4.0954   -2.4130 C   0  0  0  0  0  0
   13.7534    5.0792   -3.1757 C   0  0  0  0  0  0
   13.1010    5.8153   -3.7850 N   0  0  0  0  0  0
   14.6947    2.7621   -2.8337 C   0  0  0  0  0  0
   15.1720   -0.5705   -1.5502 C   0  0  0  0  0  0
   13.1152   -2.6917   -0.7640 C   0  0  0  0  0  0
   12.2689   -2.5634   -1.6453 O   0  0  0  0  0  0
   11.6963   -0.9845    1.1076 H   0  0  0  0  0  0
   10.8135   -2.4418    0.6664 H   0  0  0  0  0  0
   11.6271   -2.3670    2.2202 H   0  0  0  0  0  0
   15.1244   -2.6855    2.8564 H   0  0  0  0  0  0
   16.0748   -2.9310    0.6047 H   0  0  0  0  0  0
   16.9657   -4.3045   -1.0257 H   0  0  0  0  0  0
   17.4568   -6.6875   -1.4293 H   0  0  0  0  0  0
   15.6013   -8.2516   -2.0118 H   0  0  0  0  0  0
   13.3145   -7.3829   -2.3052 H   0  0  0  0  0  0
   12.8042   -5.0538   -1.8614 H   0  0  0  0  0  0
   15.7205   -3.2976   -3.5485 H   0  0  0  0  0  0
   16.3670   -1.5514   -5.1083 H   0  0  0  0  0  0
   16.2632    0.8187   -4.4525 H   0  0  0  0  0  0
   16.8531    1.5963   -0.5202 H   0  0  0  0  0  0
   15.2062    5.4686   -0.7912 H   0  0  0  0  0  0
   14.2013    2.4329   -3.7339 H   0  0  0  0  0  0
   14.7701   -0.3044   -0.5862 H   0  0  0  0  0  0
   13.4524   -2.3398    3.0692 H   0  0  0  0  0  0
  1  2  1  0  0  0
  1 29  1  0  0  0
  1 30  1  0  0  0
  1 31  1  0  0  0
  2  3  1  0  0  0
  2 27  1  0  0  0
  3  4  1  0  0  0
  3  5  2  0  0  0
  4 32  1  0  0  0
  4 46  1  0  0  0
  5  6  1  0  0  0
  5 33  1  0  0  0
  6  7  1  0  0  0
  6 13  1  0  0  0
  6 27  1  0  0  0
  7  8  2  0  0  0
  7 12  1  0  0  0
  8  9  1  0  0  0
  8 34  1  0  0  0
  9 10  2  0  0  0
  9 35  1  0  0  0
 10 11  1  0  0  0
 10 36  1  0  0  0
 11 12  2  0  0  0
 11 37  1  0  0  0
 12 38  1  0  0  0
 13 14  2  0  0  0
 13 26  1  0  0  0
 14 15  1  0  0  0
 14 39  1  0  0  0
 15 16  2  0  0  0
 15 40  1  0  0  0
 16 17  1  0  0  0
 16 41  1  0  0  0
 17 18  1  0  0  0
 17 26  2  0  0  0
 18 19  2  0  0  0
 18 25  1  0  0  0
 19 20  1  0  0  0
 19 42  1  0  0  0
 20 21  2  0  0  0
 21 22  1  0  0  0
 21 43  1  0  0  0
 22 23  1  0  0  0
 22 25  2  0  0  0
 23 24  3  0  0  0
 25 44  1  0  0  0
 26 45  1  0  0  0
 27 28  2  0  0  0
M  CHG  1   5   1
M  END
> <s_m_entry_id>
1038

> <s_m_entry_name>
Bace_CAT-4n.1

> <s_m_Source_Path>
C:\Users\yujiethinkpad\Desktop\05A\BACE

> <s_m_Source_File>
Bace_CAT-4n.sdf

> <i_m_Source_File_Index>
1

> <s_m_job_name>
align_ligands_2

> <r_user_dG.exp>
-9.093

> <r_m_Molecular_weight>
368.42166

> <i_phase_Input_Structure_Number>
16

> <i_phase_Structure_Number>
16

> <i_phase_Reference_Structure>
36

> <s_phase_Core_SMARTS>
a1aaaaa1A2(A(=A)AA=[A]2)a3aa(aaa3)-a4aaaaa4

> <s_f3d_frozen_atoms>
12 11 10 9 8 7 6 27 28 2 3 5 13 26 17 16 15 14 18 25 22 21 20 19 38 37 36 35 34 28 33 45 41 40 39 44 43 42

> <r_phase_Similarity_to_Reference>
0.924927954776618

> <s_phase_Alignment_Method>
snapped core

> <s_phase_Alignment_Reason>


> <s_m_subgroup_title>
align_ligands_2

> <s_m_subgroupid>
align_ligands_2

> <b_m_subgroup_collapsed>
0

$$$$
