CAT-4i
                    3D
 Schrodinger Suite 2021-2.
 44 47  0  0  1  0            999 V2000
   11.7045   -2.0722    1.1755 C   0  0  0  0  0  0
   12.9079   -2.5542    0.5255 N   0  0  0  0  0  0
   14.1199   -2.6862    1.1157 C   0  0  0  0  0  0
   14.1850   -2.6714    2.4561 N   0  0  0  0  0  0
   15.0991   -2.8512    0.3214 N   0  0  0  0  0  0
   14.5975   -3.0044   -1.0099 C   0  0  2  0  0  0
   14.8593   -4.4740   -1.3790 C   0  0  0  0  0  0
   13.8318   -5.3621   -1.7672 C   0  0  0  0  0  0
   14.1130   -6.7111   -2.0160 C   0  0  0  0  0  0
   15.4120   -7.1998   -1.8773 C   0  0  0  0  0  0
   16.4447   -6.3306   -1.5282 C   0  0  0  0  0  0
   16.1701   -4.9792   -1.2809 C   0  0  0  0  0  0
   15.1821   -1.9348   -1.9303 C   0  0  0  0  0  0
   15.6488   -2.2740   -3.2135 C   0  0  0  0  0  0
   16.0548   -1.2768   -4.1108 C   0  0  0  0  0  0
   15.9991    0.0677   -3.7229 C   0  0  0  0  0  0
   15.5605    0.4418   -2.4436 C   0  0  0  0  0  0
   15.4666    1.8646   -2.0832 C   0  0  0  0  0  0
   14.6947    2.7621   -2.8337 C   0  0  0  0  0  0
   14.5903    4.0954   -2.4130 C   0  0  0  0  0  0
   15.2515    4.4881   -1.2461 C   0  0  0  0  0  0
   16.0432    3.5373   -0.5942 C   0  0  0  0  0  0
   16.1612    2.2647   -1.0064 N   0  0  0  0  0  0
   15.1720   -0.5705   -1.5502 C   0  0  0  0  0  0
   13.1152   -2.6917   -0.7640 C   0  0  0  0  0  0
   12.2689   -2.5634   -1.6453 O   0  0  0  0  0  0
   11.6271   -2.3670    2.2202 H   0  0  0  0  0  0
   11.6963   -0.9845    1.1076 H   0  0  0  0  0  0
   10.8135   -2.4418    0.6664 H   0  0  0  0  0  0
   15.1244   -2.6855    2.8564 H   0  0  0  0  0  0
   12.8089   -5.0326   -1.9013 H   0  0  0  0  0  0
   13.3390   -7.3937   -2.3167 H   0  0  0  0  0  0
   15.6208   -8.2480   -2.0286 H   0  0  0  0  0  0
   17.4500   -6.7062   -1.3941 H   0  0  0  0  0  0
   16.9699   -4.3178   -0.9708 H   0  0  0  0  0  0
   15.6590   -3.2975   -3.5544 H   0  0  0  0  0  0
   16.3695   -1.5194   -5.1260 H   0  0  0  0  0  0
   16.2948    0.8303   -4.4280 H   0  0  0  0  0  0
   14.1640    2.4292   -3.7113 H   0  0  0  0  0  0
   13.9884    4.8013   -2.9644 H   0  0  0  0  0  0
   15.1747    5.4981   -0.8735 H   0  0  0  0  0  0
   16.5864    3.7965    0.3020 H   0  0  0  0  0  0
   14.8077   -0.2810   -0.5738 H   0  0  0  0  0  0
   13.4524   -2.3398    3.0692 H   0  0  0  0  0  0
  1 27  1  0  0  0
  1 28  1  0  0  0
  1 29  1  0  0  0
  1  2  1  0  0  0
  2 25  1  0  0  0
  2  3  1  0  0  0
  3  4  1  0  0  0
  3  5  2  0  0  0
  4 30  1  0  0  0
  4 44  1  0  0  0
  5  6  1  0  0  0
  6 25  1  0  0  0
  6  7  1  0  0  0
  6 13  1  0  0  0
  7  8  2  0  0  0
  7 12  1  0  0  0
  8  9  1  0  0  0
  8 31  1  0  0  0
  9 10  2  0  0  0
  9 32  1  0  0  0
 10 11  1  0  0  0
 10 33  1  0  0  0
 11 12  2  0  0  0
 11 34  1  0  0  0
 12 35  1  0  0  0
 13 14  2  0  0  0
 13 24  1  0  0  0
 14 15  1  0  0  0
 14 36  1  0  0  0
 15 16  2  0  0  0
 15 37  1  0  0  0
 16 17  1  0  0  0
 16 38  1  0  0  0
 17 18  1  0  0  0
 17 24  2  0  0  0
 18 19  2  0  0  0
 18 23  1  0  0  0
 19 20  1  0  0  0
 19 39  1  0  0  0
 20 21  2  0  0  0
 20 40  1  0  0  0
 21 22  1  0  0  0
 21 41  1  0  0  0
 22 23  2  0  0  0
 22 42  1  0  0  0
 24 43  1  0  0  0
 25 26  2  0  0  0
M  END
> <s_m_entry_id>
1058

> <s_m_entry_name>
Bace_CAT-4i.1

> <s_m_Source_Path>
C:\Users\yujiethinkpad\Desktop\05A\BACE

> <s_m_Source_File>
Bace_CAT-4i.sdf

> <i_m_Source_File_Index>
1

> <s_i_glide_gridfile>
glide-grid_Bace

> <s_lp_Force_Field>
S-OPLS

> <s_lp_Variant>
CAT-4i-1

> <r_i_docking_score>
-5.37728300241716

> <r_i_glide_ecoul>
-2.28311157226563

> <r_i_glide_einternal>
0.745424330234528

> <r_i_glide_emodel>
-38.414516001829

> <r_i_glide_energy>
-30.640625

> <r_i_glide_erotb>
0.485235280767516

> <r_i_glide_esite>
-0.0307125522488737

> <r_i_glide_evdw>
-28.3575134277344

> <r_i_glide_gscore>
-5.37728300241716

> <r_i_glide_hbond>
-0.456

> <r_i_glide_ligand_efficiency>
-0.206818577016045

> <r_i_glide_ligand_efficiency_ln>
-1.26283726881301

> <r_i_glide_ligand_efficiency_sa>
-0.612699220618229

> <r_i_glide_lipo>
-2.27380760674811

> <r_i_glide_metal>
0

> <r_i_glide_rewards>
-1.34165571696113

> <r_lp_Energy>
52.272348

> <i_i_glide_confnum>
23

> <i_i_glide_lignum>
1

> <i_i_glide_posenum>
213

> <i_i_glide_rotatable_bonds>
3

> <i_lp_mmshare_version>
54117

> <b_lp_Chiralities_Consistent>
1

> <r_lp_tautomer_probability>
1

> <r_i_glide_eff_state_penalty>
0

> <s_epik_input>
W2NIXTFbY0hdW2NIXVtjSF1bY0hdYzFbQ0BAXTIoTj1DKFtOSDJdKU4oW0NIM10pQzI9TyljM1tjSF1bY0hdW2NIXWMoW2NIXTMpLWM0W2NIXVtjSF1bY0hdW2NIXW40

> <s_epik_cmdline>
J2VwaWtfcHl0aG9uJywgJy1waCcsICc3LjAnLCAnLXRuJywgJzgnLCAnLW1hJywgJzUwMCcsICctaW1hZScsICc8aW5maWxlLm1hZT4nLCAnLW9tYWUnLCAnPG91dGZpbGUubWFlPic=

> <r_epik_Ionization_Penalty>
  0.8782

> <r_epik_Ionization_Penalty_Charging>
  0.0000

> <r_epik_Ionization_Penalty_Neutral>
  0.8782

> <r_epik_State_Penalty>
  0.0000

> <r_epik_Charging_Adjusted_Penalty>
0

> <i_epik_Tot_Q>
0

> <i_epik_Tot_abs_Q>
0

> <s_m_source_file>
ligprep_Bace4i.maegz

> <i_m_source_file_index>
1

> <i_f3d_flags>
0

> <s_m_job_name>
align_ligands_2

> <r_user_dG.exp>
-8.263

> <r_m_Molecular_weight>
343.41178

> <r_m_RMSD_695>
0

> <s_epik_Chemistry_Notes>
This compound has an imine and may undergo hydrolysis.

> <r_m_RMS_In_Place_720>
0.188722967902922

> <r_glide_shape_similarity>
0.965513825416565

> <i_phase_Input_Structure_Number>
36

> <i_phase_Structure_Number>
36

> <i_phase_Reference_Structure>
36

> <s_phase_Core_SMARTS>


> <r_phase_Similarity_to_Reference>
1

> <s_phase_Alignment_Method>


> <s_phase_Alignment_Reason>


> <s_m_subgroup_title>
align_ligands_2

> <s_m_subgroupid>
align_ligands_2

> <b_m_subgroup_collapsed>
0

$$$$
