CAT-17i
                    3D
 Schrodinger Suite 2021-2.
 45 48  0  0  1  0            999 V2000
   13.7526    5.0786   -3.1756 C   0  0  0  0  0  0
   14.5903    4.0954   -2.4130 C   0  0  0  0  0  0
   15.2515    4.4881   -1.2461 C   0  0  0  0  0  0
   16.0432    3.5373   -0.5942 N   0  0  0  0  0  0
   16.1612    2.2647   -1.0064 C   0  0  0  0  0  0
   15.4666    1.8646   -2.0832 C   0  0  0  0  0  0
   15.5605    0.4418   -2.4436 C   0  0  0  0  0  0
   15.9991    0.0677   -3.7229 C   0  0  0  0  0  0
   16.0548   -1.2768   -4.1108 C   0  0  0  0  0  0
   15.6488   -2.2740   -3.2135 C   0  0  0  0  0  0
   15.1821   -1.9348   -1.9303 C   0  0  0  0  0  0
   14.5975   -3.0044   -1.0099 C   0  0  1  0  0  0
   14.7806   -4.4005   -1.5272 C   0  0  0  0  0  0
   16.0122   -5.1754   -1.1166 C   0  0  0  0  0  0
   14.6586   -5.5583   -0.5625 C   0  0  0  0  0  0
   15.0991   -2.8512    0.3214 N   0  3  0  0  0  0
   14.1199   -2.6862    1.1157 C   0  0  0  0  0  0
   14.1850   -2.6714    2.4561 N   0  0  0  0  0  0
   12.9079   -2.5542    0.5255 N   0  0  0  0  0  0
   11.7045   -2.0722    1.1755 C   0  0  0  0  0  0
   13.1152   -2.6917   -0.7640 C   0  0  0  0  0  0
   12.2689   -2.5634   -1.6453 O   0  0  0  0  0  0
   15.1720   -0.5705   -1.5502 C   0  0  0  0  0  0
   14.6947    2.7621   -2.8337 C   0  0  0  0  0  0
   13.3220    4.5887   -4.0488 H   0  0  0  0  0  0
   12.9522    5.4481   -2.5346 H   0  0  0  0  0  0
   14.3750    5.9136   -3.4974 H   0  0  0  0  0  0
   15.1215    5.4852   -0.8452 H   0  0  0  0  0  0
   16.8912    1.6828   -0.4648 H   0  0  0  0  0  0
   16.2998    0.8065   -4.4488 H   0  0  0  0  0  0
   16.3781   -1.5490   -5.1033 H   0  0  0  0  0  0
   15.7057   -3.2764   -3.5944 H   0  0  0  0  0  0
   14.3980   -4.5181   -2.5433 H   0  0  0  0  0  0
   16.4887   -5.8336   -1.8463 H   0  0  0  0  0  0
   16.7380   -4.6996   -0.4536 H   0  0  0  0  0  0
   14.4401   -5.3495    0.4870 H   0  0  0  0  0  0
   14.1908   -6.4836   -0.9057 H   0  0  0  0  0  0
   16.0831   -2.9967    0.5546 H   0  0  0  0  0  0
   15.1244   -2.6855    2.8564 H   0  0  0  0  0  0
   10.8135   -2.4418    0.6664 H   0  0  0  0  0  0
   11.6271   -2.3670    2.2202 H   0  0  0  0  0  0
   11.6963   -0.9845    1.1076 H   0  0  0  0  0  0
   14.7783   -0.2916   -0.5832 H   0  0  0  0  0  0
   14.2015    2.4484   -3.7378 H   0  0  0  0  0  0
   13.4524   -2.3398    3.0692 H   0  0  0  0  0  0
  1  2  1  0  0  0
  1 25  1  0  0  0
  1 26  1  0  0  0
  1 27  1  0  0  0
  2  3  2  0  0  0
  2 24  1  0  0  0
  3  4  1  0  0  0
  3 28  1  0  0  0
  4  5  2  0  0  0
  5  6  1  0  0  0
  5 29  1  0  0  0
  6  7  1  0  0  0
  6 24  2  0  0  0
  7  8  2  0  0  0
  7 23  1  0  0  0
  8  9  1  0  0  0
  8 30  1  0  0  0
  9 10  2  0  0  0
  9 31  1  0  0  0
 10 11  1  0  0  0
 10 32  1  0  0  0
 11 12  1  0  0  0
 11 23  2  0  0  0
 12 13  1  0  0  0
 12 16  1  0  0  0
 12 21  1  0  0  0
 13 14  1  0  0  0
 13 15  1  0  0  0
 13 33  1  0  0  0
 14 15  1  0  0  0
 14 34  1  0  0  0
 14 35  1  0  0  0
 15 36  1  0  0  0
 15 37  1  0  0  0
 16 17  2  0  0  0
 16 38  1  0  0  0
 17 18  1  0  0  0
 17 19  1  0  0  0
 18 39  1  0  0  0
 18 45  1  0  0  0
 19 20  1  0  0  0
 19 21  1  0  0  0
 20 40  1  0  0  0
 20 41  1  0  0  0
 20 42  1  0  0  0
 21 22  2  0  0  0
 23 43  1  0  0  0
 24 44  1  0  0  0
M  CHG  1  16   1
M  END
> <s_m_entry_id>
1028

> <s_m_entry_name>
Bace_CAT-17i.1

> <s_m_Source_Path>
C:\Users\yujiethinkpad\Desktop\05A\BACE

> <s_m_Source_File>
Bace_CAT-17i.sdf

> <i_m_Source_File_Index>
1

> <s_m_job_name>
align_ligands_2

> <r_user_dG.exp>
-9.473

> <r_m_Molecular_weight>
321.40542

> <i_phase_Input_Structure_Number>
6

> <i_phase_Structure_Number>
6

> <i_phase_Reference_Structure>
36

> <s_phase_Core_SMARTS>
A=A1AA=[A]A1a2aa(aaa2)-a3aaaaa3

> <s_f3d_frozen_atoms>
22 21 19 17 16 12 11 23 7 8 9 10 6 24 2 3 4 5 22 38 43 30 31 32 44 28 29

> <r_phase_Similarity_to_Reference>
0.834866315998484

> <s_phase_Alignment_Method>
snapped core

> <s_phase_Alignment_Reason>


> <s_m_subgroup_title>
align_ligands_2

> <s_m_subgroupid>
align_ligands_2

> <b_m_subgroup_collapsed>
0

$$$$
