CAT-13i
                    3D
 Schrodinger Suite 2021-2.
 46 49  0  0  1  0            999 V2000
   11.7045   -2.0722    1.1755 C   0  0  0  0  0  0
   12.9079   -2.5542    0.5255 N   0  0  0  0  0  0
   14.1199   -2.6862    1.1157 C   0  0  0  0  0  0
   14.1850   -2.6714    2.4561 N   0  0  0  0  0  0
   15.0991   -2.8512    0.3214 N   0  3  0  0  0  0
   14.5975   -3.0044   -1.0099 C   0  0  2  0  0  0
   14.7805   -4.4008   -1.5263 C   0  0  0  0  0  0
   16.2409   -4.7429   -1.5361 C   0  0  0  0  0  0
   16.7386   -5.8452   -0.6287 C   0  0  0  0  0  0
   16.6769   -6.0662   -2.1232 C   0  0  0  0  0  0
   15.1821   -1.9348   -1.9303 C   0  0  0  0  0  0
   15.6488   -2.2740   -3.2135 C   0  0  0  0  0  0
   16.0548   -1.2768   -4.1108 C   0  0  0  0  0  0
   15.9991    0.0677   -3.7229 C   0  0  0  0  0  0
   15.5605    0.4418   -2.4436 C   0  0  0  0  0  0
   15.4666    1.8646   -2.0832 C   0  0  0  0  0  0
   14.6947    2.7621   -2.8337 C   0  0  0  0  0  0
   14.5903    4.0954   -2.4130 C   0  0  0  0  0  0
   15.2515    4.4881   -1.2461 C   0  0  0  0  0  0
   16.0432    3.5373   -0.5942 C   0  0  0  0  0  0
   16.9152    3.9889    0.8242 Cl  0  0  0  0  0  0
   16.1612    2.2647   -1.0064 C   0  0  0  0  0  0
   15.1720   -0.5705   -1.5502 C   0  0  0  0  0  0
   13.1152   -2.6917   -0.7640 C   0  0  0  0  0  0
   12.2689   -2.5634   -1.6453 O   0  0  0  0  0  0
   10.8135   -2.4418    0.6664 H   0  0  0  0  0  0
   11.6271   -2.3670    2.2202 H   0  0  0  0  0  0
   11.6963   -0.9845    1.1076 H   0  0  0  0  0  0
   15.1244   -2.6855    2.8564 H   0  0  0  0  0  0
   16.0674   -3.0042    0.6090 H   0  0  0  0  0  0
   14.3848   -4.4682   -2.5397 H   0  0  0  0  0  0
   14.2480   -5.0995   -0.8811 H   0  0  0  0  0  0
   16.8701   -3.8639   -1.6921 H   0  0  0  0  0  0
   17.7150   -5.7351   -0.1518 H   0  0  0  0  0  0
   16.0225   -6.3650    0.0113 H   0  0  0  0  0  0
   15.9177   -6.7403   -2.5256 H   0  0  0  0  0  0
   17.6101   -6.1104   -2.6887 H   0  0  0  0  0  0
   15.6979   -3.2922   -3.5571 H   0  0  0  0  0  0
   16.3918   -1.5455   -5.1031 H   0  0  0  0  0  0
   16.3035    0.8237   -4.4295 H   0  0  0  0  0  0
   14.1494    2.4116   -3.6981 H   0  0  0  0  0  0
   13.9857    4.7986   -2.9665 H   0  0  0  0  0  0
   15.1425    5.4950   -0.8688 H   0  0  0  0  0  0
   16.7929    1.5664   -0.4830 H   0  0  0  0  0  0
   14.8100   -0.2986   -0.5716 H   0  0  0  0  0  0
   13.4524   -2.3398    3.0692 H   0  0  0  0  0  0
  1  2  1  0  0  0
  1 26  1  0  0  0
  1 27  1  0  0  0
  1 28  1  0  0  0
  2  3  1  0  0  0
  2 24  1  0  0  0
  3  4  1  0  0  0
  3  5  2  0  0  0
  4 29  1  0  0  0
  4 46  1  0  0  0
  5  6  1  0  0  0
  5 30  1  0  0  0
  6  7  1  0  0  0
  6 11  1  0  0  0
  6 24  1  0  0  0
  7  8  1  0  0  0
  7 31  1  0  0  0
  7 32  1  0  0  0
  8  9  1  0  0  0
  8 10  1  0  0  0
  8 33  1  0  0  0
  9 10  1  0  0  0
  9 34  1  0  0  0
  9 35  1  0  0  0
 10 36  1  0  0  0
 10 37  1  0  0  0
 11 12  2  0  0  0
 11 23  1  0  0  0
 12 13  1  0  0  0
 12 38  1  0  0  0
 13 14  2  0  0  0
 13 39  1  0  0  0
 14 15  1  0  0  0
 14 40  1  0  0  0
 15 16  1  0  0  0
 15 23  2  0  0  0
 16 17  2  0  0  0
 16 22  1  0  0  0
 17 18  1  0  0  0
 17 41  1  0  0  0
 18 19  2  0  0  0
 18 42  1  0  0  0
 19 20  1  0  0  0
 19 43  1  0  0  0
 20 21  1  0  0  0
 20 22  2  0  0  0
 22 44  1  0  0  0
 23 45  1  0  0  0
 24 25  2  0  0  0
M  CHG  1   5   1
M  END
> <s_m_entry_id>
1049

> <s_m_entry_name>
Bace_CAT-13i.1

> <s_m_Source_Path>
C:\Users\yujiethinkpad\Desktop\05A\BACE

> <s_m_Source_File>
Bace_CAT-13i.sdf

> <i_m_Source_File_Index>
1

> <s_m_job_name>
align_ligands_2

> <r_user_dG.exp>
-9.273

> <r_m_Molecular_weight>
354.86287

> <i_phase_Input_Structure_Number>
27

> <i_phase_Structure_Number>
27

> <i_phase_Reference_Structure>
36

> <s_phase_Core_SMARTS>
A=A1AA=[A]A1a2aa(aaa2)-a3aaaaa3

> <s_f3d_frozen_atoms>
25 24 2 3 5 6 11 23 15 14 13 12 16 17 18 19 20 22 25 30 45 40 39 38 41 42 43 21 44

> <r_phase_Similarity_to_Reference>
0.874111110638957

> <s_phase_Alignment_Method>
snapped core

> <s_phase_Alignment_Reason>


> <s_m_subgroup_title>
align_ligands_2

> <s_m_subgroupid>
align_ligands_2

> <b_m_subgroup_collapsed>
0

$$$$
