CAT-13g
                    3D
 Schrodinger Suite 2021-2.
 52 55  0  0  1  0            999 V2000
   11.7045   -2.0722    1.1755 C   0  0  0  0  0  0
   12.9079   -2.5542    0.5255 N   0  0  0  0  0  0
   14.1199   -2.6862    1.1157 C   0  0  0  0  0  0
   14.1850   -2.6714    2.4561 N   0  0  0  0  0  0
   15.0991   -2.8512    0.3214 N   0  3  0  0  0  0
   14.5975   -3.0044   -1.0099 C   0  0  1  0  0  0
   15.1821   -1.9348   -1.9303 C   0  0  0  0  0  0
   15.6488   -2.2740   -3.2135 C   0  0  0  0  0  0
   16.0548   -1.2768   -4.1108 C   0  0  0  0  0  0
   15.9991    0.0677   -3.7229 C   0  0  0  0  0  0
   15.5605    0.4418   -2.4436 C   0  0  0  0  0  0
   15.4666    1.8646   -2.0832 C   0  0  0  0  0  0
   14.6947    2.7621   -2.8337 C   0  0  0  0  0  0
   14.5903    4.0954   -2.4130 C   0  0  0  0  0  0
   15.2515    4.4881   -1.2461 C   0  0  0  0  0  0
   16.0432    3.5373   -0.5942 C   0  0  0  0  0  0
   16.9152    3.9889    0.8242 Cl  0  0  0  0  0  0
   16.1612    2.2647   -1.0064 C   0  0  0  0  0  0
   15.1720   -0.5705   -1.5502 C   0  0  0  0  0  0
   14.7807   -4.4008   -1.5262 C   0  0  0  0  0  0
   16.2816   -4.7500   -1.5838 C   0  0  0  0  0  0
   16.5127   -6.2089   -2.0264 C   0  0  0  0  0  0
   15.7274   -7.2040   -1.1483 C   0  0  0  0  0  0
   14.2266   -6.8549   -1.0907 C   0  0  0  0  0  0
   13.9955   -5.3959   -0.6482 C   0  0  0  0  0  0
   13.1152   -2.6917   -0.7640 C   0  0  0  0  0  0
   12.2689   -2.5634   -1.6453 O   0  0  0  0  0  0
   10.8135   -2.4418    0.6664 H   0  0  0  0  0  0
   11.6271   -2.3670    2.2202 H   0  0  0  0  0  0
   11.6963   -0.9845    1.1076 H   0  0  0  0  0  0
   15.1244   -2.6855    2.8564 H   0  0  0  0  0  0
   16.0785   -2.8616    0.6012 H   0  0  0  0  0  0
   15.7448   -3.2958   -3.5466 H   0  0  0  0  0  0
   16.3831   -1.5643   -5.0965 H   0  0  0  0  0  0
   16.2708    0.8195   -4.4497 H   0  0  0  0  0  0
   14.1388    2.4121   -3.6907 H   0  0  0  0  0  0
   13.9825    4.7967   -2.9684 H   0  0  0  0  0  0
   15.1472    5.4956   -0.8706 H   0  0  0  0  0  0
   16.7815    1.5628   -0.4743 H   0  0  0  0  0  0
   14.7861   -0.2993   -0.5805 H   0  0  0  0  0  0
   14.3682   -4.4049   -2.5369 H   0  0  0  0  0  0
   16.7984   -4.0676   -2.2608 H   0  0  0  0  0  0
   16.7284   -4.5942   -0.6000 H   0  0  0  0  0  0
   17.5779   -6.4443   -1.9969 H   0  0  0  0  0  0
   16.2072   -6.3248   -3.0681 H   0  0  0  0  0  0
   15.8608   -8.2200   -1.5239 H   0  0  0  0  0  0
   16.1400   -7.1999   -0.1376 H   0  0  0  0  0  0
   13.7798   -7.0107   -2.0745 H   0  0  0  0  0  0
   13.7097   -7.5372   -0.4137 H   0  0  0  0  0  0
   14.3010   -5.2800    0.3935 H   0  0  0  0  0  0
   12.9302   -5.1606   -0.6776 H   0  0  0  0  0  0
   13.4524   -2.3398    3.0692 H   0  0  0  0  0  0
  1  2  1  0  0  0
  1 28  1  0  0  0
  1 29  1  0  0  0
  1 30  1  0  0  0
  2  3  1  0  0  0
  2 26  1  0  0  0
  3  4  1  0  0  0
  3  5  2  0  0  0
  4 31  1  0  0  0
  4 52  1  0  0  0
  5  6  1  0  0  0
  5 32  1  0  0  0
  6  7  1  0  0  0
  6 20  1  0  0  0
  6 26  1  0  0  0
  7  8  2  0  0  0
  7 19  1  0  0  0
  8  9  1  0  0  0
  8 33  1  0  0  0
  9 10  2  0  0  0
  9 34  1  0  0  0
 10 11  1  0  0  0
 10 35  1  0  0  0
 11 12  1  0  0  0
 11 19  2  0  0  0
 12 13  2  0  0  0
 12 18  1  0  0  0
 13 14  1  0  0  0
 13 36  1  0  0  0
 14 15  2  0  0  0
 14 37  1  0  0  0
 15 16  1  0  0  0
 15 38  1  0  0  0
 16 17  1  0  0  0
 16 18  2  0  0  0
 18 39  1  0  0  0
 19 40  1  0  0  0
 20 21  1  0  0  0
 20 25  1  0  0  0
 20 41  1  0  0  0
 21 22  1  0  0  0
 21 42  1  0  0  0
 21 43  1  0  0  0
 22 23  1  0  0  0
 22 44  1  0  0  0
 22 45  1  0  0  0
 23 24  1  0  0  0
 23 46  1  0  0  0
 23 47  1  0  0  0
 24 25  1  0  0  0
 24 48  1  0  0  0
 24 49  1  0  0  0
 25 50  1  0  0  0
 25 51  1  0  0  0
 26 27  2  0  0  0
M  CHG  1   5   1
M  END
> <s_m_entry_id>
1047

> <s_m_entry_name>
Bace_CAT-13g.1

> <s_m_Source_Path>
C:\Users\yujiethinkpad\Desktop\05A\BACE

> <s_m_Source_File>
Bace_CAT-13g.sdf

> <i_m_Source_File_Index>
1

> <s_m_job_name>
align_ligands_2

> <r_user_dG.exp>
-9.093

> <r_m_Molecular_weight>
382.91705

> <i_phase_Input_Structure_Number>
25

> <i_phase_Structure_Number>
25

> <i_phase_Reference_Structure>
36

> <s_phase_Core_SMARTS>
A=A1AA=[A]A1a2aa(aaa2)-a3aaaaa3

> <s_f3d_frozen_atoms>
27 26 2 3 5 6 7 19 11 10 9 8 12 13 14 15 16 18 27 32 40 35 34 33 36 37 38 17 39

> <r_phase_Similarity_to_Reference>
0.868197158450976

> <s_phase_Alignment_Method>
snapped core

> <s_phase_Alignment_Reason>


> <s_m_subgroup_title>
align_ligands_2

> <s_m_subgroupid>
align_ligands_2

> <b_m_subgroup_collapsed>
0

$$$$
