CAT-13k
                    3D
 Schrodinger Suite 2021-2.
 45 48  0  0  1  0            999 V2000
   11.7045   -2.0722    1.1755 C   0  0  0  0  0  0
   12.9079   -2.5542    0.5255 N   0  0  0  0  0  0
   14.1199   -2.6862    1.1157 C   0  0  0  0  0  0
   14.1850   -2.6714    2.4561 N   0  0  0  0  0  0
   15.0991   -2.8512    0.3214 N   0  3  0  0  0  0
   14.5975   -3.0044   -1.0099 C   0  0  2  0  0  0
   14.8593   -4.4740   -1.3790 C   0  0  0  0  0  0
   13.8318   -5.3621   -1.7672 C   0  0  0  0  0  0
   14.1130   -6.7111   -2.0160 C   0  0  0  0  0  0
   15.4120   -7.1998   -1.8773 C   0  0  0  0  0  0
   16.4447   -6.3306   -1.5282 N   0  0  0  0  0  0
   16.1701   -4.9792   -1.2809 C   0  0  0  0  0  0
   15.1821   -1.9348   -1.9303 C   0  0  0  0  0  0
   15.6488   -2.2740   -3.2135 C   0  0  0  0  0  0
   16.0548   -1.2768   -4.1108 C   0  0  0  0  0  0
   15.9991    0.0677   -3.7229 C   0  0  0  0  0  0
   15.5605    0.4418   -2.4436 C   0  0  0  0  0  0
   15.4666    1.8646   -2.0832 C   0  0  0  0  0  0
   14.6947    2.7621   -2.8337 C   0  0  0  0  0  0
   14.5903    4.0954   -2.4130 C   0  0  0  0  0  0
   15.2515    4.4881   -1.2461 C   0  0  0  0  0  0
   16.0432    3.5373   -0.5942 C   0  0  0  0  0  0
   16.9152    3.9889    0.8242 Cl  0  0  0  0  0  0
   16.1612    2.2647   -1.0064 C   0  0  0  0  0  0
   15.1720   -0.5705   -1.5502 C   0  0  0  0  0  0
   13.1152   -2.6917   -0.7640 C   0  0  0  0  0  0
   12.2689   -2.5634   -1.6453 O   0  0  0  0  0  0
   11.6963   -0.9845    1.1076 H   0  0  0  0  0  0
   10.8135   -2.4418    0.6664 H   0  0  0  0  0  0
   11.6271   -2.3670    2.2202 H   0  0  0  0  0  0
   15.1244   -2.6855    2.8564 H   0  0  0  0  0  0
   16.0797   -2.8424    0.6068 H   0  0  0  0  0  0
   12.8096   -5.0441   -1.8377 H   0  0  0  0  0  0
   13.3372   -7.3979   -2.3161 H   0  0  0  0  0  0
   15.6346   -8.2445   -2.0226 H   0  0  0  0  0  0
   16.9694   -4.3407   -0.9554 H   0  0  0  0  0  0
   15.6932   -3.3008   -3.5496 H   0  0  0  0  0  0
   16.3853   -1.5422   -5.1060 H   0  0  0  0  0  0
   16.2941    0.8231   -4.4338 H   0  0  0  0  0  0
   14.1431    2.4135   -3.6951 H   0  0  0  0  0  0
   13.9837    4.8007   -2.9599 H   0  0  0  0  0  0
   15.1419    5.4948   -0.8680 H   0  0  0  0  0  0
   16.7944    1.5667   -0.4862 H   0  0  0  0  0  0
   14.8005   -0.2949   -0.5751 H   0  0  0  0  0  0
   13.4524   -2.3398    3.0692 H   0  0  0  0  0  0
  1  2  1  0  0  0
  1 28  1  0  0  0
  1 29  1  0  0  0
  1 30  1  0  0  0
  2  3  1  0  0  0
  2 26  1  0  0  0
  3  4  1  0  0  0
  3  5  2  0  0  0
  4 31  1  0  0  0
  4 45  1  0  0  0
  5  6  1  0  0  0
  5 32  1  0  0  0
  6  7  1  0  0  0
  6 13  1  0  0  0
  6 26  1  0  0  0
  7  8  2  0  0  0
  7 12  1  0  0  0
  8  9  1  0  0  0
  8 33  1  0  0  0
  9 10  2  0  0  0
  9 34  1  0  0  0
 10 11  1  0  0  0
 10 35  1  0  0  0
 11 12  2  0  0  0
 12 36  1  0  0  0
 13 14  2  0  0  0
 13 25  1  0  0  0
 14 15  1  0  0  0
 14 37  1  0  0  0
 15 16  2  0  0  0
 15 38  1  0  0  0
 16 17  1  0  0  0
 16 39  1  0  0  0
 17 18  1  0  0  0
 17 25  2  0  0  0
 18 19  2  0  0  0
 18 24  1  0  0  0
 19 20  1  0  0  0
 19 40  1  0  0  0
 20 21  2  0  0  0
 20 41  1  0  0  0
 21 22  1  0  0  0
 21 42  1  0  0  0
 22 23  1  0  0  0
 22 24  2  0  0  0
 24 43  1  0  0  0
 25 44  1  0  0  0
 26 27  2  0  0  0
M  CHG  1   5   1
M  END
> <s_m_entry_id>
1051

> <s_m_entry_name>
Bace_CAT-13k.1

> <s_m_Source_Path>
C:\Users\yujiethinkpad\Desktop\05A\BACE

> <s_m_Source_File>
Bace_CAT-13k.sdf

> <i_m_Source_File_Index>
1

> <s_m_job_name>
align_ligands_2

> <r_user_dG.exp>
-9.703

> <r_m_Molecular_weight>
377.85681

> <i_phase_Input_Structure_Number>
29

> <i_phase_Structure_Number>
29

> <i_phase_Reference_Structure>
36

> <s_phase_Core_SMARTS>
a1aaaaa1A2(A(=A)AA=[A]2)a3aa(aaa3)-a4aaaaa4

> <s_f3d_frozen_atoms>
8 9 10 11 12 7 6 26 27 2 3 5 13 25 17 16 15 14 18 19 20 21 22 24 33 34 35 36 27 32 44 39 38 37 40 41 42 23 43

> <r_phase_Similarity_to_Reference>
0.934467618077953

> <s_phase_Alignment_Method>
snapped core

> <s_phase_Alignment_Reason>


> <s_m_subgroup_title>
align_ligands_2

> <s_m_subgroupid>
align_ligands_2

> <b_m_subgroup_collapsed>
0

$$$$
