27
                    3D
 Schrodinger Suite 2021-2.
 38 40  0  0  1  0            999 V2000
    3.0246  -47.2604    6.9944 O   0  0  0  0  0  0
    2.9960  -48.5042    6.8710 C   0  0  0  0  0  0
    4.0304  -49.1832    7.0447 O   0  5  0  0  0  0
    1.7173  -49.1783    6.5232 C   0  0  0  0  0  0
   -0.1074  -50.8954    6.4429 C   0  0  0  0  0  0
   -1.0177  -51.9619    6.5205 C   0  0  0  0  0  0
   -2.3600  -51.7826    6.1407 C   0  0  0  0  0  0
   -2.7782  -50.5305    5.6661 C   0  0  0  0  0  0
   -1.8605  -49.4770    5.5713 C   0  0  0  0  0  0
   -0.5101  -49.6375    5.9492 C   0  0  0  0  0  0
    0.5664  -48.6906    5.9585 C   0  0  0  0  0  0
    0.3137  -47.3112    5.5435 C   0  0  0  0  0  0
   -0.2396  -46.7215    6.7936 C   0  0  0  0  0  0
   -0.6961  -45.3559    6.6884 C   0  0  0  0  0  0
   -1.9385  -45.1775    6.0286 O   0  0  0  0  0  0
   -3.0375  -45.0386    6.8285 C   0  0  0  0  0  0
   -4.1066  -44.2675    6.3653 C   0  0  0  0  0  0
   -5.3575  -44.2723    7.0078 C   0  0  0  0  0  0
   -5.5067  -45.0317    8.1774 C   0  0  0  0  0  0
   -4.4626  -45.8627    8.6014 C   0  0  0  0  0  0
   -3.2095  -45.7791    7.9933 C   0  0  0  0  0  0
   -0.6929  -52.9221    6.8942 H   0  0  0  0  0  0
   -3.0587  -52.6021    6.2052 H   0  0  0  0  0  0
   -3.8101  -50.3737    5.3743 H   0  0  0  0  0  0
   -2.1993  -48.5136    5.2226 H   0  0  0  0  0  0
   -0.3448  -47.2799    4.6738 H   0  0  0  0  0  0
    1.2502  -46.8628    5.2127 H   0  0  0  0  0  0
    0.5000  -46.8367    7.5848 H   0  0  0  0  0  0
   -1.0647  -47.3316    7.1447 H   0  0  0  0  0  0
    0.0657  -44.7776    6.1678 H   0  0  0  0  0  0
   -0.8317  -44.9264    7.6793 H   0  0  0  0  0  0
   -4.0016  -43.6390    5.4944 H   0  0  0  0  0  0
   -2.3654  -46.2969    8.4114 H   0  0  0  0  0  0
    1.5846  -50.8595    6.9155 N   0  0  0  0  0  0
    2.3713  -51.3514    7.3143 H   0  0  0  0  0  0
   -4.6173  -46.5702    9.3989 H   0  0  0  0  0  0
   -6.4122  -44.9532    8.7585 H   0  0  0  0  0  0
   -6.1740  -43.7120    6.5773 H   0  0  0  0  0  0
  1  2  2  0  0  0
  2  3  1  0  0  0
  2  4  1  0  0  0
  4 11  2  0  0  0
  4 34  1  0  0  0
  5  6  1  0  0  0
  5 10  2  0  0  0
  5 34  1  0  0  0
  6  7  2  0  0  0
  6 22  1  0  0  0
  7  8  1  0  0  0
  7 23  1  0  0  0
  8  9  2  0  0  0
  8 24  1  0  0  0
  9 10  1  0  0  0
  9 25  1  0  0  0
 10 11  1  0  0  0
 11 12  1  0  0  0
 12 26  1  0  0  0
 12 27  1  0  0  0
 12 13  1  0  0  0
 13 14  1  0  0  0
 13 28  1  0  0  0
 13 29  1  0  0  0
 14 15  1  0  0  0
 14 30  1  0  0  0
 14 31  1  0  0  0
 15 16  1  0  0  0
 16 17  1  0  0  0
 16 21  2  0  0  0
 17 18  2  0  0  0
 17 32  1  0  0  0
 18 19  1  0  0  0
 18 38  1  0  0  0
 19 20  2  0  0  0
 19 37  1  0  0  0
 20 21  1  0  0  0
 20 36  1  0  0  0
 21 33  1  0  0  0
 34 35  1  0  0  0
M  CHG  1   3  -1
M  END
> <s_m_entry_id>
361

> <s_m_entry_name>
MCL1_27.1

> <r_m_Molecular_weight>
294.33312

> <s_m_Source_Path>
C:\Users\yujiethinkpad\Desktop\05A\MCL1\original

> <s_m_Source_File>
MCL1_27.sdf

> <r_user_dG.exp>
-6.11639066902356

> <s_fepmapper_entryid>
32

> <i_fepmapper_bias>
0

> <i_fepmapper_affinity>
1

> <r_fepmapper_exp_dG>
-6.11639066902

> <i_fepmapper_unit>
1

> <i_m_Source_File_Index>
1

> <s_m_job_name>
align_ligands_3

> <s_i_glide_gridfile>
glide-grid_MCL1

> <i_i_glide_lignum>
11

> <i_i_glide_rotatable_bonds>
6

> <r_i_docking_score>
-6.93643898080378

> <r_i_glide_ligand_efficiency>
-0.315292680945626

> <r_i_glide_ligand_efficiency_sa>
-0.883462491767152

> <r_i_glide_ligand_efficiency_ln>
-1.69551869966778

> <r_i_glide_gscore>
-6.93643898080378

> <r_i_glide_lipo>
-3.96744937045023

> <r_i_glide_hbond>
-0.2

> <r_i_glide_metal>
0

> <r_i_glide_rewards>
-2.02512724969222

> <r_i_glide_evdw>
-23.2668704986572

> <r_i_glide_ecoul>
-2.74873805046082

> <r_i_glide_erotb>
0.844395278781436

> <r_i_glide_esite>
-0.0126034069407888

> <r_i_glide_emodel>
-31.4042423509015

> <r_i_glide_energy>
-26.015608549118

> <r_i_glide_einternal>
4.381263256073

> <i_i_glide_confnum>
65

> <i_i_glide_posenum>
106

> <r_i_glide_eff_state_penalty>
0

> <r_glide_shape_similarity>
0.865372478961945

> <i_phase_Input_Structure_Number>
42

> <i_phase_Structure_Number>
42

> <r_phase_Similarity_to_Reference>
0.86278987466285

> <i_phase_Reference_Structure>
1

> <s_phase_Alignment_Method>
snapped core

> <s_phase_Alignment_Reason>


> <s_phase_Core_SMARTS>
a1aaaaa1AAAAa(aa2)a(a23)aaaa3

> <s_f3d_frozen_atoms>
17 18 19 20 21 16 15 14 13 12 11 4 34 10 5 9 8 7 6 32 38 37 36 33 30 31 28 29 26 27 35 25 24 23 22

> <s_m_subgroup_title>
align_ligands_3->glide-dock_SP_redock_05676_lib1

> <s_m_subgroupid>
align_ligands_3->glide-dock_SP_redock_05676_lib11

> <b_m_subgroup_collapsed>
0

$$$$
