30
                    3D
 Schrodinger Suite 2021-2.
 41 43  0  0  1  0            999 V2000
    3.0246  -47.2604    6.9944 O   0  0  0  0  0  0
    2.9960  -48.5042    6.8710 C   0  0  0  0  0  0
    4.0304  -49.1832    7.0447 O   0  5  0  0  0  0
    1.7173  -49.1783    6.5232 C   0  0  0  0  0  0
   -0.1074  -50.8954    6.4429 C   0  0  0  0  0  0
   -1.0177  -51.9619    6.5205 C   0  0  0  0  0  0
   -2.3600  -51.7826    6.1407 C   0  0  0  0  0  0
   -2.7782  -50.5305    5.6661 C   0  0  0  0  0  0
   -1.8605  -49.4770    5.5713 C   0  0  0  0  0  0
   -0.5101  -49.6375    5.9492 C   0  0  0  0  0  0
    0.5664  -48.6906    5.9585 C   0  0  0  0  0  0
    0.3137  -47.3112    5.5435 C   0  0  0  0  0  0
   -0.2396  -46.7215    6.7936 C   0  0  0  0  0  0
   -0.6961  -45.3559    6.6884 C   0  0  0  0  0  0
   -1.9385  -45.1775    6.0286 O   0  0  0  0  0  0
   -3.0375  -45.0386    6.8285 C   0  0  0  0  0  0
   -3.2095  -45.7791    7.9933 C   0  0  0  0  0  0
   -4.4626  -45.8627    8.6014 C   0  0  0  0  0  0
   -5.5067  -45.0317    8.1774 C   0  0  0  0  0  0
   -5.3575  -44.2723    7.0078 C   0  0  0  0  0  0
   -4.1066  -44.2675    6.3653 C   0  0  0  0  0  0
   -0.6926  -52.9239    6.8961 H   0  0  0  0  0  0
   -3.0577  -52.6055    6.2003 H   0  0  0  0  0  0
   -3.8034  -50.3745    5.3608 H   0  0  0  0  0  0
   -2.1933  -48.5113    5.2102 H   0  0  0  0  0  0
   -0.3299  -47.2821    4.6628 H   0  0  0  0  0  0
    1.2549  -46.8616    5.2069 H   0  0  0  0  0  0
    0.5290  -46.7544    7.5668 H   0  0  0  0  0  0
   -1.0630  -47.3285    7.1817 H   0  0  0  0  0  0
    0.0506  -44.7674    6.1571 H   0  0  0  0  0  0
   -0.8478  -44.9284    7.6758 H   0  0  0  0  0  0
   -2.3845  -46.3240    8.4362 H   0  0  0  0  0  0
   -3.9902  -43.6562    5.4816 H   0  0  0  0  0  0
    1.5846  -50.8595    6.9155 N   0  0  0  0  0  0
    2.3704  -51.3565    7.3025 H   0  0  0  0  0  0
   -6.1906  -43.6907    6.6287 H   0  0  0  0  0  0
   -6.4337  -44.9743    8.7362 H   0  0  0  0  0  0
   -4.6588  -46.9153    9.6564 C   0  0  0  0  0  0
   -5.6893  -47.2669    9.6339 H   0  0  0  0  0  0
   -4.3735  -46.5591   10.6470 H   0  0  0  0  0  0
   -4.0530  -47.7853    9.4128 H   0  0  0  0  0  0
  1  2  2  0  0  0
  2  3  1  0  0  0
  2  4  1  0  0  0
  4 11  2  0  0  0
  4 34  1  0  0  0
  5  6  1  0  0  0
  5 10  2  0  0  0
  5 34  1  0  0  0
  6  7  2  0  0  0
  6 22  1  0  0  0
  7  8  1  0  0  0
  7 23  1  0  0  0
  8  9  2  0  0  0
  8 24  1  0  0  0
  9 10  1  0  0  0
  9 25  1  0  0  0
 10 11  1  0  0  0
 11 12  1  0  0  0
 12 26  1  0  0  0
 12 27  1  0  0  0
 12 13  1  0  0  0
 13 14  1  0  0  0
 13 28  1  0  0  0
 13 29  1  0  0  0
 14 15  1  0  0  0
 14 30  1  0  0  0
 14 31  1  0  0  0
 15 16  1  0  0  0
 16 17  1  0  0  0
 16 21  2  0  0  0
 17 18  2  0  0  0
 17 32  1  0  0  0
 18 19  1  0  0  0
 18 38  1  0  0  0
 19 20  2  0  0  0
 19 37  1  0  0  0
 20 21  1  0  0  0
 20 36  1  0  0  0
 21 33  1  0  0  0
 34 35  1  0  0  0
 38 39  1  0  0  0
 38 40  1  0  0  0
 38 41  1  0  0  0
M  CHG  1   3  -1
M  END
> <s_m_entry_id>
359

> <s_m_entry_name>
MCL1_30.1

> <r_m_Molecular_weight>
308.36021

> <s_m_Source_Path>
C:\Users\yujiethinkpad\Desktop\05A\MCL1\original

> <s_m_Source_File>
MCL1_30.sdf

> <r_user_dG.exp>
-7.85321195175529

> <s_fepmapper_entryid>
18

> <i_fepmapper_bias>
0

> <i_fepmapper_affinity>
1

> <r_fepmapper_exp_dG>
-7.85321195176

> <i_fepmapper_unit>
1

> <i_m_Source_File_Index>
1

> <s_m_job_name>
align_ligands_3

> <s_i_glide_gridfile>
glide-grid_MCL1

> <i_i_glide_lignum>
14

> <i_i_glide_rotatable_bonds>
6

> <r_i_docking_score>
-7.32191700803463

> <r_i_glide_ligand_efficiency>
-0.318344217740636

> <r_i_glide_ligand_efficiency_sa>
-0.905328608113054

> <r_i_glide_ligand_efficiency_ln>
-1.77050592401556

> <r_i_glide_gscore>
-7.32191700803463

> <r_i_glide_lipo>
-4.28778402659974

> <r_i_glide_hbond>
-0.2

> <r_i_glide_metal>
0

> <r_i_glide_rewards>
-1.97448008168344

> <r_i_glide_evdw>
-27.1930923461914

> <r_i_glide_ecoul>
-3.05879807472229

> <r_i_glide_erotb>
0.972874471200538

> <r_i_glide_esite>
-0.0140530424340685

> <r_i_glide_emodel>
-37.8269019088049

> <r_i_glide_energy>
-30.2518904209137

> <r_i_glide_einternal>
3.75168800354004

> <i_i_glide_confnum>
277

> <i_i_glide_posenum>
346

> <r_i_glide_eff_state_penalty>
0

> <r_glide_shape_similarity>
0.884017705917358

> <i_phase_Input_Structure_Number>
40

> <i_phase_Structure_Number>
40

> <r_phase_Similarity_to_Reference>
0.909982140048805

> <i_phase_Reference_Structure>
1

> <s_phase_Alignment_Method>
snapped core

> <s_phase_Alignment_Reason>


> <s_phase_Core_SMARTS>
a1aaaaa1AAAAa(aa2)a(a23)aaaa3

> <s_f3d_frozen_atoms>
21 20 19 18 17 16 15 14 13 12 11 4 34 10 5 9 8 7 6 33 36 37 32 30 31 28 29 26 27 35 25 24 23 22

> <s_m_subgroup_title>
align_ligands_3->glide-dock_SP_redock_05676_lib1

> <s_m_subgroupid>
align_ligands_3->glide-dock_SP_redock_05676_lib11

> <b_m_subgroup_collapsed>
0

$$$$
