34
                    3D
 Schrodinger Suite 2021-2.
 41 43  0  0  1  0            999 V2000
    3.0246  -47.2604    6.9944 O   0  0  0  0  0  0
    2.9960  -48.5042    6.8710 C   0  0  0  0  0  0
    4.0304  -49.1832    7.0447 O   0  5  0  0  0  0
    1.7173  -49.1783    6.5232 C   0  0  0  0  0  0
   -0.1074  -50.8954    6.4429 C   0  0  0  0  0  0
   -1.0177  -51.9619    6.5205 C   0  0  0  0  0  0
   -2.3600  -51.7826    6.1407 C   0  0  0  0  0  0
   -2.7782  -50.5305    5.6661 C   0  0  0  0  0  0
   -1.8605  -49.4770    5.5713 C   0  0  0  0  0  0
   -0.5101  -49.6375    5.9492 C   0  0  0  0  0  0
    0.5664  -48.6906    5.9585 C   0  0  0  0  0  0
    0.3137  -47.3112    5.5435 C   0  0  0  0  0  0
   -0.2396  -46.7215    6.7936 C   0  0  0  0  0  0
   -0.6961  -45.3559    6.6884 C   0  0  0  0  0  0
   -1.9385  -45.1775    6.0286 O   0  0  0  0  0  0
   -3.0375  -45.0386    6.8285 C   0  0  0  0  0  0
   -4.1066  -44.2675    6.3653 C   0  0  0  0  0  0
   -5.3575  -44.2723    7.0078 C   0  0  0  0  0  0
   -5.5067  -45.0317    8.1774 C   0  0  0  0  0  0
   -4.4626  -45.8627    8.6014 C   0  0  0  0  0  0
   -3.2095  -45.7791    7.9933 C   0  0  0  0  0  0
   -0.7056  -52.9242    6.8935 H   0  0  0  0  0  0
   -3.0647  -52.6007    6.2325 H   0  0  0  0  0  0
   -3.8048  -50.3768    5.3638 H   0  0  0  0  0  0
   -2.1961  -48.5100    5.2230 H   0  0  0  0  0  0
   -0.3653  -47.2872    4.6943 H   0  0  0  0  0  0
    1.2442  -46.8597    5.1879 H   0  0  0  0  0  0
    0.5197  -46.7655    7.5747 H   0  0  0  0  0  0
   -1.0817  -47.3087    7.1574 H   0  0  0  0  0  0
    0.0556  -44.7631    6.1637 H   0  0  0  0  0  0
   -0.8713  -44.9209    7.6658 H   0  0  0  0  0  0
   -3.9850  -43.6472    5.4895 H   0  0  0  0  0  0
   -2.4015  -46.3558    8.4190 H   0  0  0  0  0  0
    1.5846  -50.8595    6.9155 N   0  0  0  0  0  0
    2.3753  -51.3752    7.2987 H   0  0  0  0  0  0
   -4.6184  -46.5940    9.3806 H   0  0  0  0  0  0
   -6.2002  -43.7708    6.5511 H   0  0  0  0  0  0
   -6.8318  -44.9792    8.9374 C   0  0  0  0  0  0
   -6.6298  -45.3987   10.2030 F   0  0  0  0  0  0
   -7.7835  -45.7256    8.3653 F   0  0  0  0  0  0
   -7.3123  -43.7396    8.8785 F   0  0  0  0  0  0
  1  2  2  0  0  0
  2  3  1  0  0  0
  2  4  1  0  0  0
  4 11  2  0  0  0
  4 34  1  0  0  0
  5  6  1  0  0  0
  5 10  2  0  0  0
  5 34  1  0  0  0
  6  7  2  0  0  0
  6 22  1  0  0  0
  7  8  1  0  0  0
  7 23  1  0  0  0
  8  9  2  0  0  0
  8 24  1  0  0  0
  9 10  1  0  0  0
  9 25  1  0  0  0
 10 11  1  0  0  0
 11 12  1  0  0  0
 12 26  1  0  0  0
 12 27  1  0  0  0
 12 13  1  0  0  0
 13 14  1  0  0  0
 13 28  1  0  0  0
 13 29  1  0  0  0
 14 15  1  0  0  0
 14 30  1  0  0  0
 14 31  1  0  0  0
 15 16  1  0  0  0
 16 17  1  0  0  0
 16 21  2  0  0  0
 17 18  2  0  0  0
 17 32  1  0  0  0
 18 19  1  0  0  0
 18 37  1  0  0  0
 19 20  2  0  0  0
 19 38  1  0  0  0
 20 21  1  0  0  0
 20 36  1  0  0  0
 21 33  1  0  0  0
 34 35  1  0  0  0
 38 39  1  0  0  0
 38 40  1  0  0  0
 38 41  1  0  0  0
M  CHG  1   3  -1
M  END
> <s_m_entry_id>
357

> <s_m_entry_name>
MCL1_34.1

> <r_m_Molecular_weight>
362.3315

> <s_m_Source_Path>
C:\Users\yujiethinkpad\Desktop\05A\MCL1\original

> <s_m_Source_File>
MCL1_34.sdf

> <r_user_dG.exp>
-6.86919156414505

> <s_fepmapper_entryid>
42

> <i_fepmapper_bias>
0

> <i_fepmapper_affinity>
1

> <r_fepmapper_exp_dG>
-6.86919156415

> <i_fepmapper_unit>
1

> <i_m_Source_File_Index>
1

> <s_m_job_name>
align_ligands_3

> <s_i_glide_gridfile>
glide-grid_MCL1

> <i_i_glide_lignum>
18

> <i_i_glide_rotatable_bonds>
7

> <r_i_docking_score>
-7.37802359776229

> <r_i_glide_ligand_efficiency>
-0.283770138375473

> <r_i_glide_ligand_efficiency_sa>
-0.840667918355761

> <r_i_glide_ligand_efficiency_ln>
-1.73270463266445

> <r_i_glide_gscore>
-7.37802359776229

> <r_i_glide_lipo>
-4.30592285709459

> <r_i_glide_hbond>
-0.2

> <r_i_glide_metal>
0

> <r_i_glide_rewards>
-2.27401306709022

> <r_i_glide_evdw>
-17.46071434021

> <r_i_glide_ecoul>
-2.89154362678528

> <r_i_glide_erotb>
0.731300272525245

> <r_i_glide_esite>
-0.0226206850744382

> <r_i_glide_emodel>
-22.884266576287

> <r_i_glide_energy>
-20.3522579669952

> <r_i_glide_einternal>
4.57591390609741

> <i_i_glide_confnum>
113

> <i_i_glide_posenum>
348

> <r_i_glide_eff_state_penalty>
0

> <r_glide_shape_similarity>
0.901432991027832

> <i_phase_Input_Structure_Number>
38

> <i_phase_Structure_Number>
38

> <r_phase_Similarity_to_Reference>
0.874382911839371

> <i_phase_Reference_Structure>
1

> <s_phase_Alignment_Method>
snapped core

> <s_phase_Alignment_Reason>


> <s_phase_Core_SMARTS>
a1aaaaa1AAAAa(aa2)a(a23)aaaa3

> <s_f3d_frozen_atoms>
17 18 19 20 21 16 15 14 13 12 11 4 34 10 5 9 8 7 6 32 37 36 33 30 31 28 29 26 27 35 25 24 23 22

> <s_m_subgroup_title>
align_ligands_3->glide-dock_SP_redock_05676_lib1

> <s_m_subgroupid>
align_ligands_3->glide-dock_SP_redock_05676_lib11

> <b_m_subgroup_collapsed>
0

$$$$
