38
                    3D
 Schrodinger Suite 2021-2.
 48 51  0  0  1  0            999 V2000
    3.0246  -47.2604    6.9944 O   0  0  0  0  0  0
    2.9960  -48.5042    6.8710 C   0  0  0  0  0  0
    4.0304  -49.1832    7.0447 O   0  5  0  0  0  0
    1.7173  -49.1783    6.5232 C   0  0  0  0  0  0
   -0.1074  -50.8954    6.4429 C   0  0  0  0  0  0
   -1.0177  -51.9619    6.5205 C   0  0  0  0  0  0
   -2.3600  -51.7826    6.1407 C   0  0  0  0  0  0
   -2.7782  -50.5305    5.6661 C   0  0  0  0  0  0
   -1.8605  -49.4770    5.5713 C   0  0  0  0  0  0
   -0.5101  -49.6375    5.9492 C   0  0  0  0  0  0
    0.5664  -48.6906    5.9585 C   0  0  0  0  0  0
    0.3137  -47.3112    5.5435 C   0  0  0  0  0  0
   -0.2396  -46.7215    6.7936 C   0  0  0  0  0  0
   -0.6961  -45.3559    6.6884 C   0  0  0  0  0  0
   -1.9385  -45.1775    6.0286 O   0  0  0  0  0  0
   -3.0375  -45.0386    6.8285 C   0  0  0  0  0  0
   -4.1066  -44.2675    6.3653 C   0  0  0  0  0  0
   -5.3575  -44.2723    7.0078 C   0  0  0  0  0  0
   -5.5067  -45.0317    8.1774 C   0  0  0  0  0  0
   -4.4626  -45.8627    8.6014 C   0  0  0  0  0  0
   -3.2095  -45.7791    7.9933 C   0  0  0  0  0  0
   -0.6935  -52.9220    6.8928 H   0  0  0  0  0  0
   -3.0630  -52.6007    6.2081 H   0  0  0  0  0  0
   -3.8079  -50.3791    5.3737 H   0  0  0  0  0  0
   -2.2347  -48.5222    5.2430 H   0  0  0  0  0  0
    1.2324  -46.8549    5.1691 H   0  0  0  0  0  0
   -0.3785  -47.3252    4.6998 H   0  0  0  0  0  0
   -1.1119  -47.3334    6.9900 H   0  0  0  0  0  0
    0.4087  -46.8794    7.6520 H   0  0  0  0  0  0
   -0.8220  -44.9514    7.6813 H   0  0  0  0  0  0
    0.1270  -44.8899    6.1754 H   0  0  0  0  0  0
   -4.0106  -43.7182    5.4611 H   0  0  0  0  0  0
   -2.3743  -46.2785    8.4476 H   0  0  0  0  0  0
    1.5846  -50.8595    6.9155 N   0  0  0  0  0  0
    2.3719  -51.3644    7.3084 H   0  0  0  0  0  0
   -4.6409  -46.6273    9.3420 H   0  0  0  0  0  0
   -6.4302  -45.0751    8.7304 H   0  0  0  0  0  0
   -8.7096  -43.0486    4.6831 C   0  0  0  0  0  0
   -8.8986  -43.4437    6.0139 C   0  0  0  0  0  0
   -7.7968  -43.7103    6.8455 C   0  0  0  0  0  0
   -6.4829  -43.6286    6.3155 C   0  0  0  0  0  0
   -6.3154  -43.1140    4.9933 C   0  0  0  0  0  0
   -7.4164  -42.8592    4.1747 C   0  0  0  0  0  0
   -9.5646  -42.8713    4.0540 H   0  0  0  0  0  0
   -9.9088  -43.5844    6.3577 H   0  0  0  0  0  0
   -8.0008  -44.0718    7.8394 H   0  0  0  0  0  0
   -5.3777  -43.0096    4.4795 H   0  0  0  0  0  0
   -7.2622  -42.5380    3.1554 H   0  0  0  0  0  0
  1  2  2  0  0  0
  2  3  1  0  0  0
  2  4  1  0  0  0
  4 11  2  0  0  0
  4 34  1  0  0  0
  5  6  1  0  0  0
  5 10  2  0  0  0
  5 34  1  0  0  0
  6  7  2  0  0  0
  6 22  1  0  0  0
  7  8  1  0  0  0
  7 23  1  0  0  0
  8  9  2  0  0  0
  8 24  1  0  0  0
  9 10  1  0  0  0
  9 25  1  0  0  0
 10 11  1  0  0  0
 11 12  1  0  0  0
 12 26  1  0  0  0
 12 27  1  0  0  0
 12 13  1  0  0  0
 13 14  1  0  0  0
 13 28  1  0  0  0
 13 29  1  0  0  0
 14 15  1  0  0  0
 14 30  1  0  0  0
 14 31  1  0  0  0
 15 16  1  0  0  0
 16 17  1  0  0  0
 16 21  2  0  0  0
 17 18  2  0  0  0
 17 32  1  0  0  0
 18 19  1  0  0  0
 18 41  1  0  0  0
 19 20  2  0  0  0
 19 37  1  0  0  0
 20 21  1  0  0  0
 20 36  1  0  0  0
 21 33  1  0  0  0
 34 35  1  0  0  0
 38 39  2  0  0  0
 38 43  1  0  0  0
 38 44  1  0  0  0
 39 40  1  0  0  0
 39 45  1  0  0  0
 40 41  2  0  0  0
 40 46  1  0  0  0
 41 42  1  0  0  0
 42 43  2  0  0  0
 42 47  1  0  0  0
 43 48  1  0  0  0
M  CHG  1   3  -1
M  END
> <s_m_entry_id>
326

> <s_m_entry_name>
MCL1_38.1

> <r_m_Molecular_weight>
370.4319

> <s_m_Source_Path>
C:\Users\yujiethinkpad\Desktop\05A\MCL1\original

> <s_m_Source_File>
MCL1_38.sdf

> <r_user_dG.exp>
-7.01900763427615

> <s_fepmapper_entryid>
11

> <i_fepmapper_bias>
0

> <i_fepmapper_affinity>
1

> <r_fepmapper_exp_dG>
-7.01900763428

> <i_fepmapper_unit>
1

> <i_m_Source_File_Index>
1

> <s_m_job_name>
align_ligands_3

> <s_i_glide_gridfile>
glide-grid_MCL1

> <i_i_glide_lignum>
22

> <i_i_glide_rotatable_bonds>
7

> <r_i_docking_score>
-8.83021169258068

> <r_i_glide_ligand_efficiency>
-0.315364703306453

> <r_i_glide_ligand_efficiency_sa>
-0.957632979115539

> <r_i_glide_ligand_efficiency_ln>
-2.03827212492874

> <r_i_glide_gscore>
-8.83021169258068

> <r_i_glide_lipo>
-5.98413740333221

> <r_i_glide_hbond>
-0.2

> <r_i_glide_metal>
0

> <r_i_glide_rewards>
-1.78131615998696

> <r_i_glide_evdw>
-26.0421180725098

> <r_i_glide_ecoul>
-2.70834183692932

> <r_i_glide_erotb>
0.843599049903382

> <r_i_glide_esite>
0

> <r_i_glide_emodel>
-27.5182565872438

> <r_i_glide_energy>
-28.7504599094391

> <r_i_glide_einternal>
10.9857454299927

> <i_i_glide_confnum>
130

> <i_i_glide_posenum>
273

> <r_i_glide_eff_state_penalty>
0

> <r_glide_shape_similarity>
0.776387870311737

> <i_phase_Input_Structure_Number>
7

> <i_phase_Structure_Number>
7

> <r_phase_Similarity_to_Reference>
0.783814894632688

> <i_phase_Reference_Structure>
1

> <s_phase_Alignment_Method>
snapped core

> <s_phase_Alignment_Reason>


> <s_phase_Core_SMARTS>
a1aaaaa1AAAAa(aa2)a(a23)aaaa3

> <s_f3d_frozen_atoms>
17 18 19 20 21 16 15 14 13 12 11 4 34 10 5 9 8 7 6 32 37 36 33 30 31 28 29 26 27 35 25 24 23 22

> <s_m_subgroup_title>
align_ligands_3->glide-dock_SP_redock_05676_lib1

> <s_m_subgroupid>
align_ligands_3->glide-dock_SP_redock_05676_lib11

> <b_m_subgroup_collapsed>
0

$$$$
