43
                    3D
 Schrodinger Suite 2021-2.
 44 47  0  0  1  0            999 V2000
    3.0246  -47.2604    6.9944 O   0  0  0  0  0  0
    2.9960  -48.5042    6.8710 C   0  0  0  0  0  0
    4.0304  -49.1832    7.0447 O   0  5  0  0  0  0
    1.7173  -49.1783    6.5232 C   0  0  0  0  0  0
   -0.1074  -50.8954    6.4429 C   0  0  0  0  0  0
   -1.0177  -51.9619    6.5205 C   0  0  0  0  0  0
   -2.3600  -51.7826    6.1407 C   0  0  0  0  0  0
   -2.7782  -50.5305    5.6661 C   0  0  0  0  0  0
   -1.8605  -49.4770    5.5713 C   0  0  0  0  0  0
   -0.5101  -49.6375    5.9492 C   0  0  0  0  0  0
    0.5664  -48.6906    5.9585 C   0  0  0  0  0  0
    0.3137  -47.3112    5.5435 C   0  0  0  0  0  0
   -0.2396  -46.7215    6.7936 C   0  0  0  0  0  0
   -0.6961  -45.3559    6.6884 C   0  0  0  0  0  0
   -1.9385  -45.1775    6.0286 O   0  0  0  0  0  0
   -3.0375  -45.0386    6.8285 C   0  0  0  0  0  0
   -4.4626  -45.8627    8.6014 C   0  0  0  0  0  0
   -3.2095  -45.7791    7.9933 C   0  0  0  0  0  0
   -0.6984  -52.9263    6.8973 H   0  0  0  0  0  0
   -3.0585  -52.6045    6.2225 H   0  0  0  0  0  0
   -3.8111  -50.3878    5.3762 H   0  0  0  0  0  0
   -2.1961  -48.5170    5.2158 H   0  0  0  0  0  0
    1.2429  -46.8627    5.1898 H   0  0  0  0  0  0
   -0.3586  -47.2934    4.6855 H   0  0  0  0  0  0
   -1.0799  -47.3080    7.1671 H   0  0  0  0  0  0
    0.5289  -46.7723    7.5649 H   0  0  0  0  0  0
   -0.8577  -44.8875    7.6571 H   0  0  0  0  0  0
    0.0527  -44.7757    6.1510 H   0  0  0  0  0  0
   -2.3582  -46.2953    8.4205 H   0  0  0  0  0  0
   -4.1066  -44.2675    6.3653 C   0  0  0  0  0  0
   -4.6202  -46.5310    9.4306 H   0  0  0  0  0  0
   -5.3575  -44.2723    7.0078 C   0  0  0  0  0  0
   -5.5067  -45.0317    8.1774 C   0  0  0  0  0  0
   -6.6692  -44.9343    8.9550 C   0  0  0  0  0  0
   -7.6882  -44.0648    8.5250 C   0  0  0  0  0  0
   -7.5885  -43.3035    7.3361 C   0  0  0  0  0  0
   -6.3771  -43.4987    6.4352 C   0  0  0  0  0  0
   -6.7839  -45.5093    9.8595 H   0  0  0  0  0  0
   -8.5616  -44.0043    9.1450 H   0  0  0  0  0  0
   -8.3331  -42.5737    7.0655 H   0  0  0  0  0  0
   -6.2900  -43.1156    5.4308 H   0  0  0  0  0  0
   -4.0352  -43.5825    5.5422 H   0  0  0  0  0  0
    1.5846  -50.8595    6.9155 N   0  0  0  0  0  0
    2.3661  -51.3650    7.3225 H   0  0  0  0  0  0
  1  2  2  0  0  0
  2  3  1  0  0  0
  2  4  1  0  0  0
  4 11  2  0  0  0
  4 43  1  0  0  0
  5  6  1  0  0  0
  5 10  2  0  0  0
  5 43  1  0  0  0
  6  7  2  0  0  0
  6 19  1  0  0  0
  7  8  1  0  0  0
  7 20  1  0  0  0
  8  9  2  0  0  0
  8 21  1  0  0  0
  9 10  1  0  0  0
  9 22  1  0  0  0
 10 11  1  0  0  0
 11 12  1  0  0  0
 12 23  1  0  0  0
 12 24  1  0  0  0
 12 13  1  0  0  0
 13 14  1  0  0  0
 13 25  1  0  0  0
 13 26  1  0  0  0
 14 15  1  0  0  0
 14 27  1  0  0  0
 14 28  1  0  0  0
 15 16  1  0  0  0
 16 18  2  0  0  0
 16 30  1  0  0  0
 17 18  1  0  0  0
 17 31  1  0  0  0
 17 33  2  0  0  0
 18 29  1  0  0  0
 30 32  2  0  0  0
 30 42  1  0  0  0
 32 33  1  0  0  0
 32 37  1  0  0  0
 33 34  1  0  0  0
 34 35  2  0  0  0
 34 38  1  0  0  0
 35 36  1  0  0  0
 35 39  1  0  0  0
 36 37  2  0  0  0
 36 40  1  0  0  0
 37 41  1  0  0  0
 43 44  1  0  0  0
M  CHG  1   3  -1
M  END
> <s_m_entry_id>
335

> <s_m_entry_name>
MCL1_43.1

> <r_m_Molecular_weight>
344.39366

> <s_m_Source_Path>
C:\Users\yujiethinkpad\Desktop\05A\MCL1\original

> <s_m_Source_File>
MCL1_43.sdf

> <r_user_dG.exp>
-7.03469617128338

> <s_fepmapper_entryid>
43

> <i_fepmapper_bias>
0

> <i_fepmapper_affinity>
1

> <r_fepmapper_exp_dG>
-7.03469617128

> <i_fepmapper_unit>
1

> <i_m_Source_File_Index>
1

> <s_m_job_name>
align_ligands_3

> <s_i_glide_gridfile>
glide-grid_MCL1

> <i_i_glide_lignum>
27

> <i_i_glide_rotatable_bonds>
6

> <r_i_docking_score>
-8.44929788218743

> <r_i_glide_ligand_efficiency>
-0.324972995468747

> <r_i_glide_ligand_efficiency_sa>
-0.962731220369173

> <r_i_glide_ligand_efficiency_ln>
-1.98428988322406

> <r_i_glide_gscore>
-8.44929788218743

> <r_i_glide_lipo>
-5.22537066376332

> <r_i_glide_hbond>
-0.2

> <r_i_glide_metal>
0

> <r_i_glide_rewards>
-1.89731474197161

> <r_i_glide_evdw>
-25.463020324707

> <r_i_glide_ecoul>
-3.20771908760071

> <r_i_glide_erotb>
0.640363311436548

> <r_i_glide_esite>
-0.0126669085135953

> <r_i_glide_emodel>
-33.5531159386852

> <r_i_glide_energy>
-28.6707394123077

> <r_i_glide_einternal>
4.07527017593384

> <i_i_glide_confnum>
47

> <i_i_glide_posenum>
342

> <r_i_glide_eff_state_penalty>
0

> <r_glide_shape_similarity>
0.879390835762024

> <i_phase_Input_Structure_Number>
16

> <i_phase_Structure_Number>
16

> <r_phase_Similarity_to_Reference>
0.862318531454851

> <i_phase_Reference_Structure>
1

> <s_phase_Alignment_Method>
snapped core

> <s_phase_Alignment_Reason>


> <s_phase_Core_SMARTS>
a1aaaaa1AAAAa(aa2)a(a23)aaaa3

> <s_f3d_frozen_atoms>
30 32 33 17 18 16 15 14 13 12 11 4 43 10 5 9 8 7 6 42 31 29 27 28 25 26 23 24 44 22 21 20 19

> <s_m_subgroup_title>
align_ligands_3->glide-dock_SP_redock_05676_lib1

> <s_m_subgroupid>
align_ligands_3->glide-dock_SP_redock_05676_lib11

> <b_m_subgroup_collapsed>
0

$$$$
