56
                    3D
 Schrodinger Suite 2021-2.
 47 49  0  0  1  0            999 V2000
    3.0246  -47.2604    6.9944 O   0  0  0  0  0  0
    2.9960  -48.5042    6.8710 C   0  0  0  0  0  0
    4.0304  -49.1832    7.0447 O   0  5  0  0  0  0
    1.7173  -49.1783    6.5232 C   0  0  0  0  0  0
   -0.1074  -50.8954    6.4429 C   0  0  0  0  0  0
   -1.0177  -51.9619    6.5205 C   0  0  0  0  0  0
   -2.3600  -51.7826    6.1407 C   0  0  0  0  0  0
   -2.7782  -50.5305    5.6661 C   0  0  0  0  0  0
   -1.8605  -49.4770    5.5713 C   0  0  0  0  0  0
   -0.5101  -49.6375    5.9492 C   0  0  0  0  0  0
    0.5664  -48.6906    5.9585 C   0  0  0  0  0  0
    0.3137  -47.3112    5.5435 C   0  0  0  0  0  0
   -0.2396  -46.7215    6.7936 C   0  0  0  0  0  0
   -0.6961  -45.3559    6.6884 C   0  0  0  0  0  0
   -1.9385  -45.1775    6.0286 O   0  0  0  0  0  0
   -3.0375  -45.0386    6.8285 C   0  0  0  0  0  0
   -3.2095  -45.7791    7.9933 C   0  0  0  0  0  0
   -4.4626  -45.8627    8.6014 C   0  0  0  0  0  0
   -4.6588  -46.9153    9.6564 C   0  0  0  0  0  0
   -5.5067  -45.0317    8.1774 C   0  0  0  0  0  0
   -6.9241  -44.9116    9.1223 Cl  0  0  0  0  0  0
   -5.3575  -44.2723    7.0078 C   0  0  0  0  0  0
   -6.5236  -43.5491    6.3884 C   0  0  0  0  0  0
   -4.1066  -44.2675    6.3653 C   0  0  0  0  0  0
   -0.7045  -52.9272    6.8901 H   0  0  0  0  0  0
   -3.0655  -52.6007    6.2143 H   0  0  0  0  0  0
   -3.8077  -50.3852    5.3619 H   0  0  0  0  0  0
   -2.1963  -48.5123    5.2151 H   0  0  0  0  0  0
   -0.3584  -47.2893    4.6842 H   0  0  0  0  0  0
    1.2412  -46.8535    5.1937 H   0  0  0  0  0  0
    0.5213  -46.7414    7.5621 H   0  0  0  0  0  0
   -1.0629  -47.3170    7.1770 H   0  0  0  0  0  0
    0.0385  -44.7534    6.1528 H   0  0  0  0  0  0
   -0.8569  -44.9469    7.6771 H   0  0  0  0  0  0
   -2.3778  -46.3272    8.4131 H   0  0  0  0  0  0
   -4.0530  -47.7853    9.4128 H   0  0  0  0  0  0
   -5.6893  -47.2669    9.6339 H   0  0  0  0  0  0
   -4.3735  -46.5591   10.6470 H   0  0  0  0  0  0
   -6.1915  -42.8411    5.6296 H   0  0  0  0  0  0
   -7.1869  -44.2660    5.9067 H   0  0  0  0  0  0
   -7.1034  -43.0089    7.1373 H   0  0  0  0  0  0
   -3.9731  -43.6735    5.4684 H   0  0  0  0  0  0
    2.5123  -51.8102    7.5215 C   0  0  0  0  0  0
    2.0345  -52.7870    7.5959 H   0  0  0  0  0  0
    3.4067  -51.8893    6.9035 H   0  0  0  0  0  0
    2.7883  -51.4639    8.5175 H   0  0  0  0  0  0
    1.5846  -50.8595    6.9155 N   0  0  0  0  0  0
  1  2  2  0  0  0
  2  3  1  0  0  0
  2  4  1  0  0  0
  4 11  2  0  0  0
  4 47  1  0  0  0
  5  6  1  0  0  0
  5 10  2  0  0  0
  5 47  1  0  0  0
  6  7  2  0  0  0
  6 25  1  0  0  0
  7  8  1  0  0  0
  7 26  1  0  0  0
  8  9  2  0  0  0
  8 27  1  0  0  0
  9 10  1  0  0  0
  9 28  1  0  0  0
 10 11  1  0  0  0
 11 12  1  0  0  0
 12 29  1  0  0  0
 12 30  1  0  0  0
 12 13  1  0  0  0
 13 14  1  0  0  0
 13 31  1  0  0  0
 13 32  1  0  0  0
 14 15  1  0  0  0
 14 33  1  0  0  0
 14 34  1  0  0  0
 15 16  1  0  0  0
 16 17  1  0  0  0
 16 24  2  0  0  0
 17 18  2  0  0  0
 17 35  1  0  0  0
 18 19  1  0  0  0
 18 20  1  0  0  0
 19 36  1  0  0  0
 19 37  1  0  0  0
 19 38  1  0  0  0
 20 21  1  0  0  0
 20 22  2  0  0  0
 22 23  1  0  0  0
 22 24  1  0  0  0
 23 39  1  0  0  0
 23 40  1  0  0  0
 23 41  1  0  0  0
 24 42  1  0  0  0
 43 44  1  0  0  0
 43 45  1  0  0  0
 43 46  1  0  0  0
 43 47  1  0  0  0
M  CHG  1   3  -1
M  END
> <s_m_entry_id>
338

> <s_m_entry_name>
MCL1_56.1

> <r_m_Molecular_weight>
370.85942

> <s_m_Source_Path>
C:\Users\yujiethinkpad\Desktop\05A\MCL1\original

> <s_m_Source_File>
MCL1_56.sdf

> <r_user_dG.exp>
-9.25808309585768

> <s_fepmapper_entryid>
35

> <i_fepmapper_bias>
0

> <i_fepmapper_affinity>
1

> <r_fepmapper_exp_dG>
-9.25808309586

> <i_fepmapper_unit>
1

> <i_m_Source_File_Index>
1

> <s_m_job_name>
align_ligands_3

> <s_i_glide_gridfile>
glide-grid_MCL1

> <i_i_glide_lignum>
39

> <i_i_glide_rotatable_bonds>
6

> <r_i_docking_score>
-8.39077795017004

> <r_i_glide_ligand_efficiency>
-0.322722228852694

> <r_i_glide_ligand_efficiency_sa>
-0.956063333125453

> <r_i_glide_ligand_efficiency_ln>
-1.97054666920934

> <r_i_glide_gscore>
-8.39077795017004

> <r_i_glide_lipo>
-4.95869748990606

> <r_i_glide_hbond>
-0.2

> <r_i_glide_metal>
0

> <r_i_glide_rewards>
-1.87310243588817

> <r_i_glide_evdw>
-31.8008899688721

> <r_i_glide_ecoul>
-2.99921822547913

> <r_i_glide_erotb>
0.70154775679004

> <r_i_glide_esite>
-0.0205985489003752

> <r_i_glide_emodel>
-48.7144572632488

> <r_i_glide_energy>
-34.8001081943512

> <r_i_glide_einternal>
3.55680251121521

> <i_i_glide_confnum>
125

> <i_i_glide_posenum>
380

> <r_i_glide_eff_state_penalty>
0

> <r_glide_shape_similarity>
0.910635113716125

> <i_phase_Input_Structure_Number>
19

> <i_phase_Structure_Number>
19

> <r_phase_Similarity_to_Reference>
0.943940990863368

> <i_phase_Reference_Structure>
1

> <s_phase_Alignment_Method>
snapped core

> <s_phase_Alignment_Reason>


> <s_phase_Core_SMARTS>
a1aaaaa1AAAAa(aa2)a(a23)aaaa3

> <s_f3d_frozen_atoms>
24 22 20 18 17 16 15 14 13 12 11 4 47 10 5 9 8 7 6 42 21 35 33 34 31 32 29 30 28 27 26 25

> <s_m_subgroup_title>
align_ligands_3->glide-dock_SP_redock_05676_lib1

> <s_m_subgroupid>
align_ligands_3->glide-dock_SP_redock_05676_lib11

> <b_m_subgroup_collapsed>
0

$$$$
