64
                    3D
 Schrodinger Suite 2021-2.
 43 46  0  0  1  0            999 V2000
    3.0246  -47.2604    6.9944 O   0  0  0  0  0  0
    2.9960  -48.5042    6.8710 C   0  0  0  0  0  0
    4.0304  -49.1832    7.0447 O   0  5  0  0  0  0
    1.7173  -49.1783    6.5232 C   0  0  0  0  0  0
    1.5846  -50.8595    6.9155 S   0  0  0  0  0  0
   -0.1074  -50.8954    6.4429 C   0  0  0  0  0  0
   -1.0177  -51.9619    6.5205 C   0  0  0  0  0  0
   -2.3600  -51.7826    6.1407 C   0  0  0  0  0  0
   -2.7782  -50.5305    5.6661 C   0  0  0  0  0  0
   -1.8605  -49.4770    5.5713 C   0  0  0  0  0  0
   -0.5101  -49.6375    5.9492 C   0  0  0  0  0  0
    0.5664  -48.6906    5.9585 C   0  0  0  0  0  0
    0.3137  -47.3112    5.5435 C   0  0  0  0  0  0
   -0.2396  -46.7215    6.7936 C   0  0  0  0  0  0
   -0.6961  -45.3559    6.6884 C   0  0  0  0  0  0
   -1.9385  -45.1775    6.0286 O   0  0  0  0  0  0
   -3.0375  -45.0386    6.8285 C   0  0  0  0  0  0
   -5.5067  -45.0317    8.1774 C   0  0  0  0  0  0
   -4.4626  -45.8627    8.6014 C   0  0  0  0  0  0
   -3.2095  -45.7791    7.9933 C   0  0  0  0  0  0
   -0.7273  -52.8801    7.0094 H   0  0  0  0  0  0
   -3.4445  -53.0763    6.4431 Cl  0  0  0  0  0  0
   -3.8161  -50.3575    5.4192 H   0  0  0  0  0  0
   -2.2208  -48.5052    5.2759 H   0  0  0  0  0  0
    1.2307  -46.8605    5.1629 H   0  0  0  0  0  0
   -0.3592  -47.3038    4.6874 H   0  0  0  0  0  0
   -0.9985  -47.3422    7.2693 H   0  0  0  0  0  0
    0.6148  -46.7661    7.4400 H   0  0  0  0  0  0
   -0.8299  -44.9284    7.6819 H   0  0  0  0  0  0
    0.0830  -44.7772    6.1980 H   0  0  0  0  0  0
   -2.3672  -46.2687    8.4537 H   0  0  0  0  0  0
   -5.3575  -44.2723    7.0078 C   0  0  0  0  0  0
   -4.1066  -44.2675    6.3653 C   0  0  0  0  0  0
   -3.9871  -43.4888    5.1792 C   0  0  0  0  0  0
   -5.1354  -42.8904    4.6177 C   0  0  0  0  0  0
   -6.3682  -42.9130    5.3096 C   0  0  0  0  0  0
   -6.4869  -43.6306    6.4420 C   0  0  0  0  0  0
   -3.0518  -43.4509    4.6397 H   0  0  0  0  0  0
   -5.0591  -42.3694    3.6743 H   0  0  0  0  0  0
   -7.2064  -42.3386    4.9433 H   0  0  0  0  0  0
   -7.4679  -43.8007    6.8577 H   0  0  0  0  0  0
   -4.6049  -46.5476    9.4224 H   0  0  0  0  0  0
   -6.4507  -45.0500    8.7031 H   0  0  0  0  0  0
  1  2  2  0  0  0
  2  3  1  0  0  0
  2  4  1  0  0  0
  4  5  1  0  0  0
  4 12  2  0  0  0
  5  6  1  0  0  0
  6  7  1  0  0  0
  6 11  2  0  0  0
  7  8  2  0  0  0
  7 21  1  0  0  0
  8  9  1  0  0  0
  8 22  1  0  0  0
  9 10  2  0  0  0
  9 23  1  0  0  0
 10 11  1  0  0  0
 10 24  1  0  0  0
 11 12  1  0  0  0
 12 13  1  0  0  0
 13 25  1  0  0  0
 13 26  1  0  0  0
 13 14  1  0  0  0
 14 15  1  0  0  0
 14 27  1  0  0  0
 14 28  1  0  0  0
 15 16  1  0  0  0
 15 29  1  0  0  0
 15 30  1  0  0  0
 16 17  1  0  0  0
 17 20  2  0  0  0
 17 33  1  0  0  0
 18 19  2  0  0  0
 18 32  1  0  0  0
 18 43  1  0  0  0
 19 20  1  0  0  0
 19 42  1  0  0  0
 20 31  1  0  0  0
 32 33  2  0  0  0
 32 37  1  0  0  0
 33 34  1  0  0  0
 34 35  2  0  0  0
 34 38  1  0  0  0
 35 36  1  0  0  0
 35 39  1  0  0  0
 36 37  2  0  0  0
 36 40  1  0  0  0
 37 41  1  0  0  0
M  CHG  1   3  -1
M  END
> <s_m_entry_id>
334

> <s_m_entry_name>
MCL1_64.1

> <r_m_Molecular_weight>
395.88802

> <s_m_Source_Path>
C:\Users\yujiethinkpad\Desktop\05A\MCL1\original

> <s_m_Source_File>
MCL1_64.sdf

> <r_user_dG.exp>
-9.4997930107542

> <s_fepmapper_entryid>
27

> <i_fepmapper_bias>
0

> <i_fepmapper_affinity>
1

> <r_fepmapper_exp_dG>
-9.49979301075

> <i_fepmapper_unit>
1

> <i_m_Source_File_Index>
1

> <s_m_job_name>
align_ligands_3

> <s_i_glide_gridfile>
glide-grid_MCL1

> <i_i_glide_lignum>
4

> <i_i_glide_rotatable_bonds>
6

> <r_i_docking_score>
-8.47650710300587

> <r_i_glide_ligand_efficiency>
-0.313944707518736

> <r_i_glide_ligand_efficiency_sa>
-0.941834121521497

> <r_i_glide_ligand_efficiency_ln>
-1.97319110743842

> <r_i_glide_gscore>
-8.47650710300587

> <r_i_glide_lipo>
-5.42893694397984

> <r_i_glide_hbond>
-0.284451246867126

> <r_i_glide_metal>
0

> <r_i_glide_rewards>
-1.60991359090909

> <r_i_glide_evdw>
-27.4263801574707

> <r_i_glide_ecoul>
-1.67887485027313

> <r_i_glide_erotb>
0.499214537276342

> <r_i_glide_esite>
-0.0292696231116417

> <r_i_glide_emodel>
-33.5187901193061

> <r_i_glide_energy>
-29.1052550077438

> <r_i_glide_einternal>
4.26889324188232

> <i_i_glide_confnum>
32

> <i_i_glide_posenum>
193

> <r_i_glide_eff_state_penalty>
0

> <r_glide_shape_similarity>
0.86612206697464

> <i_phase_Input_Structure_Number>
15

> <i_phase_Structure_Number>
15

> <r_phase_Similarity_to_Reference>
0.85594029087889

> <i_phase_Reference_Structure>
1

> <s_phase_Alignment_Method>
snapped core

> <s_phase_Alignment_Reason>


> <s_phase_Core_SMARTS>
a1aaaaa1AAAAa(aa2)a(a23)aaaa3

> <s_f3d_frozen_atoms>
33 32 18 19 20 17 16 15 14 13 12 4 5 11 6 10 9 8 7 43 42 31 29 30 27 28 25 26 24 23 22 21

> <s_m_subgroup_title>
align_ligands_3->glide-dock_SP_redock_05676_lib1

> <s_m_subgroupid>
align_ligands_3->glide-dock_SP_redock_05676_lib11

> <b_m_subgroup_collapsed>
0

$$$$
