68
                    3D
 Schrodinger Suite 2021-2.
 43 46  0  0  1  0            999 V2000
    3.0246  -47.2604    6.9944 O   0  0  0  0  0  0
    2.9960  -48.5042    6.8710 C   0  0  0  0  0  0
    4.0304  -49.1832    7.0447 O   0  5  0  0  0  0
    1.7173  -49.1783    6.5232 C   0  0  0  0  0  0
   -0.1074  -50.8954    6.4429 C   0  0  0  0  0  0
   -1.0177  -51.9619    6.5205 C   0  0  0  0  0  0
   -2.3600  -51.7826    6.1407 C   0  0  0  0  0  0
   -2.7782  -50.5305    5.6661 C   0  0  0  0  0  0
   -1.8605  -49.4770    5.5713 C   0  0  0  0  0  0
   -0.5101  -49.6375    5.9492 C   0  0  0  0  0  0
    0.5664  -48.6906    5.9585 C   0  0  0  0  0  0
    0.3137  -47.3112    5.5435 C   0  0  0  0  0  0
   -0.2396  -46.7215    6.7936 C   0  0  0  0  0  0
   -0.6961  -45.3559    6.6884 C   0  0  0  0  0  0
   -1.9385  -45.1775    6.0286 O   0  0  0  0  0  0
   -3.0375  -45.0386    6.8285 C   0  0  0  0  0  0
   -5.5067  -45.0317    8.1774 C   0  0  0  0  0  0
   -4.4626  -45.8627    8.6014 C   0  0  0  0  0  0
   -3.2095  -45.7791    7.9933 C   0  0  0  0  0  0
   -0.7137  -52.9098    6.9393 H   0  0  0  0  0  0
   -3.0736  -52.5836    6.2671 H   0  0  0  0  0  0
   -4.4652  -50.3098    5.3489 Cl  0  0  0  0  0  0
   -2.1999  -48.4948    5.2963 H   0  0  0  0  0  0
    1.2227  -46.8404    5.1735 H   0  0  0  0  0  0
   -0.3876  -47.2881    4.7112 H   0  0  0  0  0  0
   -1.0308  -47.3335    7.2218 H   0  0  0  0  0  0
    0.5709  -46.7432    7.4928 H   0  0  0  0  0  0
   -0.7800  -44.9116    7.6845 H   0  0  0  0  0  0
    0.0165  -44.7650    6.1191 H   0  0  0  0  0  0
   -2.4237  -46.4251    8.3426 H   0  0  0  0  0  0
   -5.3575  -44.2723    7.0078 C   0  0  0  0  0  0
   -4.1066  -44.2675    6.3653 C   0  0  0  0  0  0
   -3.8858  -43.4070    5.2722 C   0  0  0  0  0  0
   -4.9131  -42.5574    4.8633 C   0  0  0  0  0  0
   -6.1753  -42.6376    5.4894 C   0  0  0  0  0  0
   -6.4107  -43.4508    6.5539 C   0  0  0  0  0  0
   -2.9355  -43.3651    4.7647 H   0  0  0  0  0  0
   -4.7331  -41.8661    4.0619 H   0  0  0  0  0  0
   -6.9698  -42.0299    5.0881 H   0  0  0  0  0  0
   -7.3565  -43.4045    7.0721 H   0  0  0  0  0  0
   -4.6157  -46.5724    9.3984 H   0  0  0  0  0  0
   -6.3930  -44.9205    8.7878 H   0  0  0  0  0  0
    1.5846  -50.8595    6.9155 O   0  0  0  0  0  0
  1  2  2  0  0  0
  2  3  1  0  0  0
  2  4  1  0  0  0
  4 11  2  0  0  0
  4 43  1  0  0  0
  5  6  1  0  0  0
  5 10  2  0  0  0
  5 43  1  0  0  0
  6  7  2  0  0  0
  6 20  1  0  0  0
  7  8  1  0  0  0
  7 21  1  0  0  0
  8  9  2  0  0  0
  8 22  1  0  0  0
  9 10  1  0  0  0
  9 23  1  0  0  0
 10 11  1  0  0  0
 11 12  1  0  0  0
 12 24  1  0  0  0
 12 25  1  0  0  0
 12 13  1  0  0  0
 13 14  1  0  0  0
 13 26  1  0  0  0
 13 27  1  0  0  0
 14 15  1  0  0  0
 14 28  1  0  0  0
 14 29  1  0  0  0
 15 16  1  0  0  0
 16 19  2  0  0  0
 16 32  1  0  0  0
 17 18  2  0  0  0
 17 31  1  0  0  0
 17 42  1  0  0  0
 18 19  1  0  0  0
 18 41  1  0  0  0
 19 30  1  0  0  0
 31 32  2  0  0  0
 31 36  1  0  0  0
 32 33  1  0  0  0
 33 34  2  0  0  0
 33 37  1  0  0  0
 34 35  1  0  0  0
 34 38  1  0  0  0
 35 36  2  0  0  0
 35 39  1  0  0  0
 36 40  1  0  0  0
M  CHG  1   3  -1
M  END
> <s_m_entry_id>
339

> <s_m_entry_name>
MCL1_68.1

> <r_m_Molecular_weight>
379.82342

> <s_m_Source_Path>
C:\Users\yujiethinkpad\Desktop\05A\MCL1\original

> <s_m_Source_File>
MCL1_68.sdf

> <r_user_dG.exp>
-7.6896119149271

> <s_fepmapper_entryid>
9

> <i_fepmapper_bias>
0

> <i_fepmapper_affinity>
1

> <r_fepmapper_exp_dG>
-7.68961191493

> <i_fepmapper_unit>
1

> <i_m_Source_File_Index>
1

> <s_m_job_name>
align_ligands_3

> <s_i_glide_gridfile>
glide-grid_MCL1

> <i_i_glide_lignum>
8

> <i_i_glide_rotatable_bonds>
6

> <r_i_docking_score>
-8.36429422375066

> <r_i_glide_ligand_efficiency>
-0.309788674953728

> <r_i_glide_ligand_efficiency_sa>
-0.929366023840172

> <r_i_glide_ligand_efficiency_ln>
-1.9470697991217

> <r_i_glide_gscore>
-8.36429422375066

> <r_i_glide_lipo>
-5.22998740883288

> <r_i_glide_hbond>
-0.226641807654411

> <r_i_glide_metal>
0

> <r_i_glide_rewards>
-1.71945859090909

> <r_i_glide_evdw>
-26.7822532653809

> <r_i_glide_ecoul>
-2.39084792137146

> <r_i_glide_erotb>
0.53775539038866

> <r_i_glide_esite>
-0.0282219552681839

> <r_i_glide_emodel>
-31.7863173835608

> <r_i_glide_energy>
-29.1731011867523

> <r_i_glide_einternal>
10.4027938842773

> <i_i_glide_confnum>
42

> <i_i_glide_posenum>
150

> <r_i_glide_eff_state_penalty>
0

> <r_glide_shape_similarity>
0.859702050685883

> <i_phase_Input_Structure_Number>
20

> <i_phase_Structure_Number>
20

> <r_phase_Similarity_to_Reference>
0.842794189295672

> <i_phase_Reference_Structure>
1

> <s_phase_Alignment_Method>
snapped core

> <s_phase_Alignment_Reason>


> <s_phase_Core_SMARTS>
a1aaaaa1AAAAa(aa2)a(a23)aaaa3

> <s_f3d_frozen_atoms>
32 31 17 18 19 16 15 14 13 12 11 4 43 10 5 9 8 7 6 42 41 30 28 29 26 27 24 25 23 22 21 20

> <s_m_subgroup_title>
align_ligands_3->glide-dock_SP_redock_05676_lib1

> <s_m_subgroupid>
align_ligands_3->glide-dock_SP_redock_05676_lib11

> <b_m_subgroup_collapsed>
0

$$$$
