CAT-4l
                    3D
 Schrodinger Suite 2021-2.
 44 47  0  0  1  0            999 V2000
   11.9088   -1.9019    1.3708 C   0  0  0  0  0  0
   13.0844   -2.4260    0.6991 N   0  0  0  0  0  0
   14.2999   -2.5104    1.2185 C   0  0  0  0  0  0
   14.5800   -2.2560    2.4650 N   0  0  0  0  0  0
   15.2386   -2.8357    0.3589 N   0  3  0  0  0  0
   14.6583   -3.0107   -0.9497 C   0  0  2  0  0  0
   14.8740   -4.4736   -1.3401 C   0  0  0  0  0  0
   13.8203   -5.3404   -1.6957 C   0  0  0  0  0  0
   14.0665   -6.6896   -1.9625 C   0  0  0  0  0  0
   15.3626   -7.1980   -1.8869 C   0  0  0  0  0  0
   16.4206   -6.3541   -1.5469 C   0  0  0  0  0  0
   16.1769   -5.0043   -1.2749 C   0  0  0  0  0  0
   15.1876   -1.9413   -1.9026 C   0  0  0  0  0  0
   15.6534   -2.2867   -3.1788 C   0  0  0  0  0  0
   16.0652   -1.2933   -4.0728 C   0  0  0  0  0  0
   15.9992    0.0580   -3.7148 C   0  0  0  0  0  0
   15.5374    0.4373   -2.4493 C   0  0  0  0  0  0
   15.3442    1.8511   -2.1173 C   0  0  0  0  0  0
   16.3900    2.7636   -1.9189 C   0  0  0  0  0  0
   16.1828    4.0391   -1.5484 N   0  0  0  0  0  0
   14.9063    4.4316   -1.4372 C   0  0  0  0  0  0
   13.8496    3.5482   -1.7052 C   0  0  0  0  0  0
   14.0636    2.2587   -2.0389 N   0  0  0  0  0  0
   15.1625   -0.5712   -1.5443 C   0  0  0  0  0  0
   13.1890   -2.6904   -0.6685 C   0  0  0  0  0  0
   12.2559   -2.6145   -1.4617 O   0  0  0  0  0  0
   11.7157   -2.4257    2.3074 H   0  0  0  0  0  0
   12.1765   -0.8614    1.5617 H   0  0  0  0  0  0
   11.0111   -1.9327    0.7520 H   0  0  0  0  0  0
   15.5846   -2.2855    2.7915 H   0  0  0  0  0  0
   16.2175   -3.0117    0.5963 H   0  0  0  0  0  0
   12.7957   -5.0115   -1.7676 H   0  0  0  0  0  0
   13.2536   -7.3484   -2.2177 H   0  0  0  0  0  0
   15.5485   -8.2411   -2.1004 H   0  0  0  0  0  0
   17.4259   -6.7417   -1.4835 H   0  0  0  0  0  0
   17.0069   -4.3697   -0.9998 H   0  0  0  0  0  0
   15.6817   -3.3148   -3.5065 H   0  0  0  0  0  0
   16.4143   -1.5656   -5.0583 H   0  0  0  0  0  0
   16.2848    0.8116   -4.4348 H   0  0  0  0  0  0
   17.4141    2.4736   -2.0535 H   0  0  0  0  0  0
   14.7255    5.4578   -1.1523 H   0  0  0  0  0  0
   12.8221    3.8724   -1.6284 H   0  0  0  0  0  0
   14.7913   -0.2710   -0.5744 H   0  0  0  0  0  0
   13.8145   -2.1402    3.1185 H   0  0  0  0  0  0
  1  2  1  0  0  0
  1 27  1  0  0  0
  1 28  1  0  0  0
  1 29  1  0  0  0
  2  3  1  0  0  0
  2 25  1  0  0  0
  3  4  1  0  0  0
  3  5  2  0  0  0
  4 30  1  0  0  0
  4 44  1  0  0  0
  5  6  1  0  0  0
  5 31  1  0  0  0
  6  7  1  0  0  0
  6 13  1  0  0  0
  6 25  1  0  0  0
  7  8  2  0  0  0
  7 12  1  0  0  0
  8  9  1  0  0  0
  8 32  1  0  0  0
  9 10  2  0  0  0
  9 33  1  0  0  0
 10 11  1  0  0  0
 10 34  1  0  0  0
 11 12  2  0  0  0
 11 35  1  0  0  0
 12 36  1  0  0  0
 13 14  2  0  0  0
 13 24  1  0  0  0
 14 15  1  0  0  0
 14 37  1  0  0  0
 15 16  2  0  0  0
 15 38  1  0  0  0
 16 17  1  0  0  0
 16 39  1  0  0  0
 17 18  1  0  0  0
 17 24  2  0  0  0
 18 19  2  0  0  0
 18 23  1  0  0  0
 19 20  1  0  0  0
 19 40  1  0  0  0
 20 21  2  0  0  0
 21 22  1  0  0  0
 21 41  1  0  0  0
 22 23  2  0  0  0
 22 42  1  0  0  0
 24 43  1  0  0  0
 25 26  2  0  0  0
M  CHG  1   5   1
M  END
> <s_m_entry_id>
1389

> <s_m_entry_name>
Bace_CAT-4l.1

> <s_m_Source_Path>
C:\Users\yujiethinkpad\Desktop\05A\BACE

> <s_m_Source_File>
Bace_CAT-4l.sdf

> <i_m_Source_File_Index>
1

> <s_i_glide_gridfile>
glide-grid_Bace

> <r_i_docking_score>
-6.79132029959052

> <r_i_glide_ecoul>
-13.472695350647

> <r_i_glide_einternal>
2.04647970199585

> <r_i_glide_emodel>
-52.7271127317298

> <r_i_glide_energy>
-39.8467226028442

> <r_i_glide_erotb>
0.480256146690913

> <r_i_glide_esite>
-0.18949810589328

> <r_i_glide_evdw>
-26.3740272521973

> <r_i_glide_gscore>
-6.79132029959052

> <r_i_glide_hbond>
-0.27817977330475

> <r_i_glide_ligand_efficiency>
-0.261204626907328

> <r_i_glide_ligand_efficiency_ln>
-1.59491928821935

> <r_i_glide_ligand_efficiency_sa>
-0.773817679422381

> <r_i_glide_lipo>
-2.118434058752

> <r_i_glide_metal>
0

> <r_i_glide_rewards>
-1.34585884312449

> <i_i_glide_confnum>
23

> <i_i_glide_lignum>
15

> <i_i_glide_posenum>
360

> <i_i_glide_rotatable_bonds>
3

> <r_i_glide_eff_state_penalty>
0

> <s_m_job_name>
glide-dock_SP_bace_other

> <r_user_dG.exp>
-9.343

> <r_m_Molecular_weight>
344.39936

> <r_glide_shape_similarity>
0.948647081851959

> <s_m_subgroup_title>
glide-dock_SP_bace_other_lib1

> <s_m_subgroupid>
glide-dock_SP_bace_other_lib1

> <b_m_subgroup_collapsed>
0

$$$$
