CAT-13c
                    3D
 Schrodinger Suite 2021-2.
 45 47  0  0  1  0            999 V2000
   14.7490   -5.6701   -0.5156 C   0  0  0  0  0  0
   14.9923   -4.5890   -1.5699 C   0  0  0  0  0  0
   14.1819   -5.0622   -2.7863 C   0  0  0  0  0  0
   14.7299   -3.1082   -1.0903 C   0  0  2  0  0  0
   15.2545   -1.9818   -1.9961 C   0  0  0  0  0  0
   15.8321   -2.2867   -3.2414 C   0  0  0  0  0  0
   16.2175   -1.2804   -4.1276 C   0  0  0  0  0  0
   16.0784    0.0534   -3.7655 C   0  0  0  0  0  0
   15.5554    0.4053   -2.5215 C   0  0  0  0  0  0
   15.3172    1.8299   -2.3016 C   0  0  0  0  0  0
   14.5280    2.5182   -3.2351 C   0  0  0  0  0  0
   14.1848    3.8651   -3.0577 C   0  0  0  0  0  0
   14.5682    4.5202   -1.8903 C   0  0  0  0  0  0
   15.2944    3.8233   -0.9284 C   0  0  0  0  0  0
   15.3876    4.5157    0.6358 Cl  0  0  0  0  0  0
   15.7799    2.5266   -1.1851 C   0  0  0  0  0  0
   15.1615   -0.6100   -1.6241 C   0  0  0  0  0  0
   15.3017   -2.9372    0.2305 N   0  3  0  0  0  0
   14.3462   -2.6385    1.0924 C   0  0  0  0  0  0
   14.5840   -2.4861    2.3707 N   0  0  0  0  0  0
   13.1390   -2.5293    0.5516 N   0  0  0  0  0  0
   11.9167   -2.1134    1.2340 C   0  0  0  0  0  0
   13.2593   -2.8253   -0.8129 C   0  0  0  0  0  0
   12.3346   -2.7952   -1.6149 O   0  0  0  0  0  0
   13.7069   -5.7019   -0.1949 H   0  0  0  0  0  0
   15.0120   -6.6607   -0.8910 H   0  0  0  0  0  0
   15.3554   -5.5141    0.3651 H   0  0  0  0  0  0
   16.0506   -4.6564   -1.8198 H   0  0  0  0  0  0
   13.1368   -5.2409   -2.5242 H   0  0  0  0  0  0
   14.1756   -4.3491   -3.6145 H   0  0  0  0  0  0
   14.5721   -6.0061   -3.1777 H   0  0  0  0  0  0
   16.0040   -3.2966   -3.5662 H   0  0  0  0  0  0
   16.6397   -1.5233   -5.0905 H   0  0  0  0  0  0
   16.3751    0.8174   -4.4684 H   0  0  0  0  0  0
   14.1679    2.0015   -4.1147 H   0  0  0  0  0  0
   13.5832    4.3722   -3.8012 H   0  0  0  0  0  0
   14.2252    5.5276   -1.6930 H   0  0  0  0  0  0
   16.3097    1.9842   -0.4097 H   0  0  0  0  0  0
   14.7205   -0.3213   -0.6804 H   0  0  0  0  0  0
   16.2794   -3.0854    0.4835 H   0  0  0  0  0  0
   15.5618   -2.5385    2.7519 H   0  0  0  0  0  0
   11.0572   -2.1430    0.5605 H   0  0  0  0  0  0
   11.7121   -2.7486    2.0918 H   0  0  0  0  0  0
   12.0609   -1.0862    1.5633 H   0  0  0  0  0  0
   13.8085   -2.3263    2.9973 H   0  0  0  0  0  0
  1  2  1  0  0  0
  1 25  1  0  0  0
  1 26  1  0  0  0
  1 27  1  0  0  0
  2  3  1  0  0  0
  2  4  1  0  0  0
  2 28  1  0  0  0
  3 29  1  0  0  0
  3 30  1  0  0  0
  3 31  1  0  0  0
  4  5  1  0  0  0
  4 18  1  0  0  0
  4 23  1  0  0  0
  5  6  2  0  0  0
  5 17  1  0  0  0
  6  7  1  0  0  0
  6 32  1  0  0  0
  7  8  2  0  0  0
  7 33  1  0  0  0
  8  9  1  0  0  0
  8 34  1  0  0  0
  9 10  1  0  0  0
  9 17  2  0  0  0
 10 11  2  0  0  0
 10 16  1  0  0  0
 11 12  1  0  0  0
 11 35  1  0  0  0
 12 13  2  0  0  0
 12 36  1  0  0  0
 13 14  1  0  0  0
 13 37  1  0  0  0
 14 15  1  0  0  0
 14 16  2  0  0  0
 16 38  1  0  0  0
 17 39  1  0  0  0
 18 19  2  0  0  0
 18 40  1  0  0  0
 19 20  1  0  0  0
 19 21  1  0  0  0
 20 41  1  0  0  0
 20 45  1  0  0  0
 21 22  1  0  0  0
 21 23  1  0  0  0
 22 42  1  0  0  0
 22 43  1  0  0  0
 22 44  1  0  0  0
 23 24  2  0  0  0
M  CHG  1  18   1
M  END
> <s_m_entry_id>
1411

> <s_m_entry_name>
Bace_CAT-13c.1

> <s_m_Source_Path>
C:\Users\yujiethinkpad\Desktop\05A\BACE

> <s_m_Source_File>
Bace_CAT-13c.sdf

> <i_m_Source_File_Index>
1

> <s_i_glide_gridfile>
glide-grid_Bace

> <r_i_docking_score>
-6.42350262687928

> <r_i_glide_ecoul>
-11.5070199966431

> <r_i_glide_einternal>
2.97026920318604

> <r_i_glide_emodel>
-36.2155587809076

> <r_i_glide_energy>
-34.828179359436

> <r_i_glide_erotb>
0.322739942440471

> <r_i_glide_esite>
-0.190339516600079

> <r_i_glide_evdw>
-23.321159362793

> <r_i_glide_gscore>
-6.42350262687928

> <r_i_glide_hbond>
-0.307156016776074

> <r_i_glide_ligand_efficiency>
-0.267645942786637

> <r_i_glide_ligand_efficiency_ln>
-1.53743893394125

> <r_i_glide_ligand_efficiency_sa>
-0.772024491139251

> <r_i_glide_lipo>
-2.11521748236672

> <r_i_glide_metal>
0

> <r_i_glide_rewards>
-1.24141858594077

> <i_i_glide_confnum>
2

> <i_i_glide_lignum>
22

> <i_i_glide_posenum>
388

> <i_i_glide_rotatable_bonds>
3

> <r_i_glide_eff_state_penalty>
0

> <s_m_job_name>
glide-dock_SP_bace_other

> <r_user_dG.exp>
-9.323

> <r_m_Molecular_weight>
342.85172

> <r_glide_shape_similarity>
0.839211165904999

> <s_m_subgroup_title>
glide-dock_SP_bace_other_lib1

> <s_m_subgroupid>
glide-dock_SP_bace_other_lib1

> <b_m_subgroup_collapsed>
0

$$$$
