CAT-17d
                    3D
 Schrodinger Suite 2021-2.
 42 45  0  0  1  0            999 V2000
   11.8659   -2.1603    1.2355 C   0  0  0  0  0  0
   13.1318   -2.5003    0.5910 N   0  0  0  0  0  0
   14.3462   -2.5093    1.1367 C   0  0  0  0  0  0
   14.5846   -2.2205    2.3839 N   0  0  0  0  0  0
   15.3257   -2.8386    0.3155 N   0  3  0  0  0  0
   14.7619   -3.0910   -0.9869 C   0  0  1  0  0  0
   15.2449   -1.9948   -1.9543 C   0  0  0  0  0  0
   15.6832   -2.2844   -3.2518 C   0  0  0  0  0  0
   16.0682   -1.2571   -4.1175 C   0  0  0  0  0  0
   15.9957    0.0800   -3.7182 C   0  0  0  0  0  0
   15.5554    0.4294   -2.4348 C   0  0  0  0  0  0
   15.4528    1.8533   -2.0530 C   0  0  0  0  0  0
   14.7409    2.7748   -2.8375 C   0  0  0  0  0  0
   14.6280    4.1119   -2.4249 C   0  0  0  0  0  0
   15.2318    4.4918   -1.2233 C   0  0  0  0  0  0
   15.9482    3.6445   -0.4718 N   0  0  0  0  0  0
   16.0494    2.3688   -0.8919 C   0  0  0  0  0  0
   15.1971   -0.6224   -1.5625 C   0  0  0  0  0  0
   14.9143   -4.6112   -1.1914 C   0  0  0  0  0  0
   14.5554   -5.3747   -2.4322 C   0  0  0  0  0  0
   15.9886   -5.3484   -1.9420 C   0  0  0  0  0  0
   13.2814   -2.8317   -0.7604 C   0  0  0  0  0  0
   12.3673   -2.8827   -1.5775 O   0  0  0  0  0  0
   11.0110   -2.5485    0.6766 H   0  0  0  0  0  0
   11.8184   -2.5649    2.2480 H   0  0  0  0  0  0
   11.7807   -1.0797    1.2658 H   0  0  0  0  0  0
   15.5691   -2.2863    2.7614 H   0  0  0  0  0  0
   16.2977   -2.9970    0.5910 H   0  0  0  0  0  0
   15.7302   -3.2859   -3.6374 H   0  0  0  0  0  0
   16.3997   -1.4928   -5.1200 H   0  0  0  0  0  0
   16.2837    0.8513   -4.4190 H   0  0  0  0  0  0
   14.2618    2.4530   -3.7515 H   0  0  0  0  0  0
   14.0753    4.8299   -3.0129 H   0  0  0  0  0  0
   15.1581    5.5091   -0.8698 H   0  0  0  0  0  0
   16.5780    1.7048   -0.2241 H   0  0  0  0  0  0
   14.8498   -0.3567   -0.5729 H   0  0  0  0  0  0
   14.6235   -5.1385   -0.2812 H   0  0  0  0  0  0
   13.9875   -6.2918   -2.2964 H   0  0  0  0  0  0
   14.2936   -4.8140   -3.3270 H   0  0  0  0  0  0
   16.7227   -4.7725   -2.4986 H   0  0  0  0  0  0
   16.3581   -6.2780   -1.5226 H   0  0  0  0  0  0
   13.7963   -2.0811    3.0029 H   0  0  0  0  0  0
  1  2  1  0  0  0
  1 24  1  0  0  0
  1 25  1  0  0  0
  1 26  1  0  0  0
  2  3  1  0  0  0
  2 22  1  0  0  0
  3  4  1  0  0  0
  3  5  2  0  0  0
  4 27  1  0  0  0
  4 42  1  0  0  0
  5  6  1  0  0  0
  5 28  1  0  0  0
  6  7  1  0  0  0
  6 19  1  0  0  0
  6 22  1  0  0  0
  7  8  2  0  0  0
  7 18  1  0  0  0
  8  9  1  0  0  0
  8 29  1  0  0  0
  9 10  2  0  0  0
  9 30  1  0  0  0
 10 11  1  0  0  0
 10 31  1  0  0  0
 11 12  1  0  0  0
 11 18  2  0  0  0
 12 13  2  0  0  0
 12 17  1  0  0  0
 13 14  1  0  0  0
 13 32  1  0  0  0
 14 15  2  0  0  0
 14 33  1  0  0  0
 15 16  1  0  0  0
 15 34  1  0  0  0
 16 17  2  0  0  0
 17 35  1  0  0  0
 18 36  1  0  0  0
 19 20  1  0  0  0
 19 21  1  0  0  0
 19 37  1  0  0  0
 20 21  1  0  0  0
 20 38  1  0  0  0
 20 39  1  0  0  0
 21 40  1  0  0  0
 21 41  1  0  0  0
 22 23  2  0  0  0
M  CHG  1   5   1
M  END
> <s_m_entry_id>
1419

> <s_m_entry_name>
Bace_CAT-17d.1

> <s_m_Source_Path>
C:\Users\yujiethinkpad\Desktop\05A\BACE

> <s_m_Source_File>
Bace_CAT-17d.sdf

> <i_m_Source_File_Index>
1

> <s_i_glide_gridfile>
glide-grid_Bace

> <r_i_docking_score>
-6.16349067419939

> <r_i_glide_ecoul>
-13.4152421951294

> <r_i_glide_einternal>
1.01559948921204

> <r_i_glide_emodel>
-34.1285880005386

> <r_i_glide_energy>
-30.9221048355103

> <r_i_glide_erotb>
0.586999406032003

> <r_i_glide_esite>
-0.1895692272315

> <r_i_glide_evdw>
-17.5068626403809

> <r_i_glide_gscore>
-6.16349067419939

> <r_i_glide_hbond>
-0.291754816758776

> <r_i_glide_ligand_efficiency>
-0.267977855399974

> <r_i_glide_ligand_efficiency_ln>
-1.49038793246495

> <r_i_glide_ligand_efficiency_sa>
-0.762093373506909

> <r_i_glide_lipo>
-1.84182400567986

> <r_i_glide_metal>
0

> <r_i_glide_rewards>
-1.53971256927281

> <i_i_glide_confnum>
7

> <i_i_glide_lignum>
2

> <i_i_glide_posenum>
318

> <i_i_glide_rotatable_bonds>
3

> <r_i_glide_eff_state_penalty>
0

> <s_m_job_name>
glide-dock_SP_bace_other

> <r_user_dG.exp>
-9.423

> <r_m_Molecular_weight>
307.37833

> <r_glide_shape_similarity>
0.863239228725433

> <s_m_subgroup_title>
glide-dock_SP_bace_other_lib1

> <s_m_subgroupid>
glide-dock_SP_bace_other_lib1

> <b_m_subgroup_collapsed>
0

$$$$
