CAT-4a
                    3D
 Schrodinger Suite 2021-2.
 46 49  0  0  1  0            999 V2000
   11.8056   -2.1967    1.4561 C   0  0  0  0  0  0
   13.0628   -2.5105    0.7684 N   0  0  0  0  0  0
   14.2959   -2.6199    1.3030 C   0  0  0  0  0  0
   14.5848   -2.5505    2.5947 N   0  0  0  0  0  0
   15.2498   -2.8330    0.3974 N   0  3  0  0  0  0
   14.6589   -3.0051   -0.9316 C   0  0  2  0  0  0
   14.8734   -4.4847   -1.3338 C   0  0  0  0  0  0
   13.8127   -5.3586   -1.7099 C   0  0  0  0  0  0
   14.0670   -6.7213   -1.9715 C   0  0  0  0  0  0
   15.3773   -7.2313   -1.8679 C   0  0  0  0  0  0
   16.4439   -6.3713   -1.5392 C   0  0  0  0  0  0
   16.1908   -5.0097   -1.2760 C   0  0  0  0  0  0
   15.1890   -1.9403   -1.9098 C   0  0  0  0  0  0
   15.6525   -2.2918   -3.2028 C   0  0  0  0  0  0
   16.0700   -1.2899   -4.1034 C   0  0  0  0  0  0
   16.0109    0.0703   -3.7312 C   0  0  0  0  0  0
   15.5597    0.4517   -2.4435 C   0  0  0  0  0  0
   15.4583    1.8788   -2.0531 C   0  0  0  0  0  0
   14.7260    2.7966   -2.8431 C   0  0  0  0  0  0
   14.5753    4.1471   -2.4500 C   0  0  0  0  0  0
   15.1529    4.6046   -1.2485 C   0  0  0  0  0  0
   15.9013    3.7164   -0.4536 C   0  0  0  0  0  0
   16.0477    2.3690   -0.8611 C   0  0  0  0  0  0
   15.1702   -0.5647   -1.5407 C   0  0  0  0  0  0
   13.1731   -2.6897   -0.6381 C   0  0  0  0  0  0
   12.2404   -2.6026   -1.4436 O   0  0  0  0  0  0
   11.7524   -2.6801    2.4298 H   0  0  0  0  0  0
   11.7910   -1.1226    1.5619 H   0  0  0  0  0  0
   10.9347   -2.4967    0.8752 H   0  0  0  0  0  0
   15.5978   -2.5531    2.9208 H   0  0  0  0  0  0
   16.2408   -3.0036    0.6271 H   0  0  0  0  0  0
   12.7933   -5.0208   -1.8018 H   0  0  0  0  0  0
   13.2608   -7.3855   -2.2404 H   0  0  0  0  0  0
   15.5639   -8.2839   -2.0244 H   0  0  0  0  0  0
   17.4493   -6.7562   -1.4623 H   0  0  0  0  0  0
   17.0127   -4.3655   -0.9952 H   0  0  0  0  0  0
   15.6762   -3.3212   -3.5278 H   0  0  0  0  0  0
   16.4201   -1.5582   -5.0896 H   0  0  0  0  0  0
   16.3146    0.8253   -4.4443 H   0  0  0  0  0  0
   14.2594    2.4597   -3.7571 H   0  0  0  0  0  0
   14.0055    4.8277   -3.0659 H   0  0  0  0  0  0
   15.0182    5.6309   -0.9395 H   0  0  0  0  0  0
   16.3201    4.0480    0.4836 H   0  0  0  0  0  0
   16.5329    1.6728   -0.1968 H   0  0  0  0  0  0
   14.8150   -0.2744   -0.5620 H   0  0  0  0  0  0
   13.8229   -2.4210    3.2573 H   0  0  0  0  0  0
  1  2  1  0  0  0
  1 27  1  0  0  0
  1 28  1  0  0  0
  1 29  1  0  0  0
  2  3  1  0  0  0
  2 25  1  0  0  0
  3  4  1  0  0  0
  3  5  2  0  0  0
  4 30  1  0  0  0
  4 46  1  0  0  0
  5  6  1  0  0  0
  5 31  1  0  0  0
  6  7  1  0  0  0
  6 13  1  0  0  0
  6 25  1  0  0  0
  7  8  2  0  0  0
  7 12  1  0  0  0
  8  9  1  0  0  0
  8 32  1  0  0  0
  9 10  2  0  0  0
  9 33  1  0  0  0
 10 11  1  0  0  0
 10 34  1  0  0  0
 11 12  2  0  0  0
 11 35  1  0  0  0
 12 36  1  0  0  0
 13 14  2  0  0  0
 13 24  1  0  0  0
 14 15  1  0  0  0
 14 37  1  0  0  0
 15 16  2  0  0  0
 15 38  1  0  0  0
 16 17  1  0  0  0
 16 39  1  0  0  0
 17 18  1  0  0  0
 17 24  2  0  0  0
 18 19  2  0  0  0
 18 23  1  0  0  0
 19 20  1  0  0  0
 19 40  1  0  0  0
 20 21  2  0  0  0
 20 41  1  0  0  0
 21 22  1  0  0  0
 21 42  1  0  0  0
 22 23  2  0  0  0
 22 43  1  0  0  0
 23 44  1  0  0  0
 24 45  1  0  0  0
 25 26  2  0  0  0
M  CHG  1   5   1
M  END
> <s_m_entry_id>
1403

> <s_m_entry_name>
Bace_CAT-4a.1

> <s_m_Source_Path>
C:\Users\yujiethinkpad\Desktop\05A\BACE

> <s_m_Source_File>
Bace_CAT-4a.sdf

> <i_m_Source_File_Index>
1

> <s_i_glide_gridfile>
glide-grid_Bace

> <r_i_docking_score>
-6.54611011461205

> <r_i_glide_ecoul>
-13.3985538482666

> <r_i_glide_einternal>
1.52459073066711

> <r_i_glide_emodel>
-48.3531419551009

> <r_i_glide_energy>
-33.1259346008301

> <r_i_glide_erotb>
0.485185305836128

> <r_i_glide_esite>
-0.193159000187205

> <r_i_glide_evdw>
-19.7273807525635

> <r_i_glide_gscore>
-6.54611011461205

> <r_i_glide_hbond>
-0.258712679127151

> <r_i_glide_ligand_efficiency>
-0.251773465946617

> <r_i_glide_ligand_efficiency_ln>
-1.53733248087741

> <r_i_glide_ligand_efficiency_sa>
-0.745877902186104

> <r_i_glide_lipo>
-2.22899240824513

> <r_i_glide_metal>
0

> <r_i_glide_rewards>
-1.35427921802053

> <i_i_glide_confnum>
8

> <i_i_glide_lignum>
9

> <i_i_glide_posenum>
394

> <i_i_glide_rotatable_bonds>
3

> <r_i_glide_eff_state_penalty>
0

> <s_m_job_name>
glide-dock_SP_bace_other

> <r_user_dG.exp>
-7.933

> <r_m_Molecular_weight>
342.4242

> <r_glide_shape_similarity>
0.983627557754517

> <s_m_subgroup_title>
glide-dock_SP_bace_other_lib1

> <s_m_subgroupid>
glide-dock_SP_bace_other_lib1

> <b_m_subgroup_collapsed>
0

$$$$
